# NWT package for  MODFLOW-NWT, generated by Flopy.
 1.000e-02 5.000e+02      5000 1.000e-05         2         1         0   COMPLEX
