# Name file for MODFLOW-NWT, generated by Flopy version 3.2.9.
#xul:0; yul:55; rotation:0; proj4_str:+init=EPSG:4326; units:meters; lenuni:2; length_multiplier:1.0 ;start_datetime:1-1-1970
LIST               2  pollock_88_ex2.list
DIS               11  pollock_88_ex2.dis 
UPW               31  pollock_88_ex2.upw 
BAS6              13  pollock_88_ex2.bas 
OC                14  pollock_88_ex2.oc 
CHD               24  pollock_88_ex2.chd 
NWT               32  pollock_88_ex2.nwt 
DATA(BINARY)      53  pollock_88_ex2.cbc REPLACE
DATA(BINARY)      51  pollock_88_ex2.hds REPLACE
