# Name file for MODPATH, generated by Flopy version 3.2.9.
MPBAS  86 test2.mpbas
DIS  11 pollock_88_ex2.dis
HEAD  88 pollock_88_ex2.hds
BUDGET  89 pollock_88_ex2.cbc
