@ [ MODPATH 6.0 (TREF=   0.000000E+00 ) ] 
                  1       0.750000000000000E-02       0.500000000000000E+02       0.5000000E+00       0.125000000000000E+02       0.000000000000000E+00        1        1        1         1
                  2       0.125000000000000E+02       0.500000000000000E+02       0.5000000E+00       0.125000000000000E+02       0.000000000000000E+00        1        3        1         1
                  3       0.225000000000000E+02       0.500000000000000E+02       0.5000000E+00       0.125000000000000E+02       0.000000000000000E+00        1        5        1         1
                  4       0.325000000000000E+02       0.500000000000000E+02       0.5000000E+00       0.125000000000000E+02       0.000000000000000E+00        1        7        1         1
                  5       0.425000000000000E+02       0.500000000000000E+02       0.5000000E+00       0.125000000000000E+02       0.000000000000000E+00        1        9        1         1
                  1       0.750000000000000E-02       0.500000000000000E+02       0.5000000E+00       0.125000000000000E+02       0.000000000000000E+00        1        1        1         1
                  1       0.750000000000000E-02       0.500000000000000E+02       0.5000000E+00       0.125000000000000E+02       0.000000000000000E+00        2        1        1         1
                  1       0.756693295345020E-02       0.450000000000000E+02       0.5000000E+00       0.125000000000000E+02       0.246409782827546E+00        3        1        1         1
                  1       0.777696362646809E-02       0.400000000000000E+02       0.5000000E+00       0.125000000000000E+02       0.497321077131511E+00        4        1        1         1
                  1       0.816499356126270E-02       0.350000000000000E+02       0.5000000E+00       0.125000000000000E+02       0.757941742182548E+00        5        1        1         1
                  1       0.871909060885975E-02       0.306138284245523E+02       0.5000000E+00       0.125000000000000E+02       0.100000000000000E+01        5        1        1         1
                  2       0.125000000000000E+02       0.500000000000000E+02       0.5000000E+00       0.125000000000000E+02       0.000000000000000E+00        1        3        1         1
                  2       0.125000000000000E+02       0.500000000000000E+02       0.5000000E+00       0.125000000000000E+02       0.000000000000000E+00        2        3        1         1
                  2       0.126008503853556E+02       0.450000000000000E+02       0.5000000E+00       0.125000000000000E+02       0.234091276948440E+00        3        3        1         1
                  2       0.129163090328179E+02       0.400000000000000E+02       0.5000000E+00       0.125000000000000E+02       0.471668227308763E+00        4        3        1         1
                  2       0.134956404015756E+02       0.350000000000000E+02       0.5000000E+00       0.125000000000000E+02       0.716815808267234E+00        5        3        1         1
                  2       0.144401474499028E+02       0.300000000000000E+02       0.5000000E+00       0.125000000000000E+02       0.975064513563167E+00        6        3        1         1
                  2       0.145687111292415E+02       0.295344805243540E+02       0.5000000E+00       0.125000000000000E+02       0.100000000000000E+01        6        3        1         1
                  3       0.225000000000000E+02       0.500000000000000E+02       0.5000000E+00       0.125000000000000E+02       0.000000000000000E+00        1        5        1         1
                  3       0.225000000000000E+02       0.500000000000000E+02       0.5000000E+00       0.125000000000000E+02       0.000000000000000E+00        2        5        1         1
                  3       0.226416316251089E+02       0.450000000000000E+02       0.5000000E+00       0.125000000000000E+02       0.211443186957376E+00        3        5        1         1
                  3       0.230813969946384E+02       0.400000000000000E+02       0.5000000E+00       0.125000000000000E+02       0.424360458242510E+00        4        5        1         1
                  3       0.238775332130542E+02       0.350000000000000E+02       0.5000000E+00       0.125000000000000E+02       0.640622477738770E+00        5        5        1         1
                  3       0.250000000000000E+02       0.305702065244841E+02       0.5000000E+00       0.125000000000000E+02       0.837291556603507E+00        5        6        1         1
                  3       0.251350251444189E+02       0.300000000000000E+02       0.5000000E+00       0.125000000000000E+02       0.860558538111236E+00        6        6        1         1
                  3       0.262951089343398E+02       0.266228312295225E+02       0.5000000E+00       0.125000000000000E+02       0.100000000000000E+01        6        6        1         1
                  4       0.325000000000000E+02       0.500000000000000E+02       0.5000000E+00       0.125000000000000E+02       0.000000000000000E+00        1        7        1         1
                  4       0.325000000000000E+02       0.500000000000000E+02       0.5000000E+00       0.125000000000000E+02       0.000000000000000E+00        2        7        1         1
                  4       0.326298018242740E+02       0.450000000000000E+02       0.5000000E+00       0.125000000000000E+02       0.188326832196051E+00        3        7        1         1
                  4       0.330285742920048E+02       0.400000000000000E+02       0.5000000E+00       0.125000000000000E+02       0.375777246993307E+00        4        7        1         1
                  4       0.337348857337053E+02       0.350000000000000E+02       0.5000000E+00       0.125000000000000E+02       0.561639123085041E+00        5        7        1         1
                  4       0.348262276575004E+02       0.300000000000000E+02       0.5000000E+00       0.125000000000000E+02       0.745629017011760E+00        6        7        1         1
                  4       0.350000000000000E+02       0.294678718611972E+02       0.5000000E+00       0.125000000000000E+02       0.765108566012037E+00        6        8        1         1
                  4       0.362562202120363E+02       0.250000000000000E+02       0.5000000E+00       0.125000000000000E+02       0.908764008499844E+00        7        8        1         1
                  4       0.374223912138377E+02       0.220716091391353E+02       0.5000000E+00       0.125000000000000E+02       0.100000000000000E+01        7        8        1         1
                  5       0.425000000000000E+02       0.500000000000000E+02       0.5000000E+00       0.125000000000000E+02       0.000000000000000E+00        1        9        1         1
                  5       0.425000000000000E+02       0.500000000000000E+02       0.5000000E+00       0.125000000000000E+02       0.000000000000000E+00        2        9        1         1
                  5       0.425674532852765E+02       0.450000000000000E+02       0.5000000E+00       0.125000000000000E+02       0.172782991009719E+00        3        9        1         1
                  5       0.427726172641601E+02       0.400000000000000E+02       0.5000000E+00       0.125000000000000E+02       0.342801117316218E+00        4        9        1         1
                  5       0.431278674396418E+02       0.350000000000000E+02       0.5000000E+00       0.125000000000000E+02       0.507220726569977E+00        5        9        1         1
                  5       0.436546769911668E+02       0.300000000000000E+02       0.5000000E+00       0.125000000000000E+02       0.663107324103007E+00        6        9        1         1
                  5       0.443888049526893E+02       0.250000000000000E+02       0.5000000E+00       0.125000000000000E+02       0.807570054699767E+00        7        9        1         1
                  5       0.450000000000000E+02       0.221281104532635E+02       0.5000000E+00       0.125000000000000E+02       0.884414862030072E+00        7       10        1         1
                  5       0.453479860488612E+02       0.200000000000000E+02       0.5000000E+00       0.125000000000000E+02       0.931287442061964E+00        8       10        1         1
                  5       0.461789995865983E+02       0.164263315118927E+02       0.5000000E+00       0.125000000000000E+02       0.100000000000000E+01        8       10        1         1
                  1       0.871909060885975E-02       0.306138284245523E+02       0.5000000E+00       0.125000000000000E+02       0.100000000000000E+01        5        1        1         2
                  1       0.880269071657175E-02       0.300000000000000E+02       0.5000000E+00       0.125000000000000E+02       0.103517980503806E+01        6        1        1         2
                  1       0.982944600956837E-02       0.250000000000000E+02       0.5000000E+00       0.125000000000000E+02       0.133928705255093E+01        7        1        1         2
                  1       0.115322962508543E-01       0.200000000000000E+02       0.5000000E+00       0.125000000000000E+02       0.168717178277693E+01        8        1        1         2
                  1       0.137198990128384E-01       0.161936071381797E+02       0.5000000E+00       0.125000000000000E+02       0.200000000000000E+01        8        1        1         2
                  2       0.145687111292415E+02       0.295344805243540E+02       0.5000000E+00       0.125000000000000E+02       0.100000000000000E+01        6        3        1         2
                  2       0.150000000000000E+02       0.280293940026064E+02       0.5000000E+00       0.125000000000000E+02       0.108211971502374E+01        6        4        1         2
                  2       0.158684409486261E+02       0.250000000000000E+02       0.5000000E+00       0.125000000000000E+02       0.124109411537582E+01        7        4        1         2
                  2       0.180897742434415E+02       0.200000000000000E+02       0.5000000E+00       0.125000000000000E+02       0.152768269366647E+01        8        4        1         2
                  2       0.200000000000000E+02       0.172817794852304E+02       0.5000000E+00       0.125000000000000E+02       0.170269660273437E+01        8        5        1         2
                  2       0.216677718555109E+02       0.150000000000000E+02       0.5000000E+00       0.125000000000000E+02       0.184175098085507E+01        9        5        1         2
                  2       0.242541744139392E+02       0.126705250572878E+02       0.5000000E+00       0.125000000000000E+02       0.200000000000000E+01        9        5        1         2
                  3       0.262951089343398E+02       0.266228312295225E+02       0.5000000E+00       0.125000000000000E+02       0.100000000000000E+01        6        6        1         2
                  3       0.268710808762880E+02       0.250000000000000E+02       0.5000000E+00       0.125000000000000E+02       0.106811155927377E+01        7        6        1         2
                  3       0.295153199563054E+02       0.200000000000000E+02       0.5000000E+00       0.125000000000000E+02       0.128633595889160E+01        8        6        1         2
                  3       0.300000000000000E+02       0.193816958949668E+02       0.5000000E+00       0.125000000000000E+02       0.131448231302468E+01        8        7        1         2
                  3       0.330748959416485E+02       0.150000000000000E+02       0.5000000E+00       0.125000000000000E+02       0.148539756872282E+01        9        7        1         2
                  3       0.350000000000000E+02       0.132840273120125E+02       0.5000000E+00       0.125000000000000E+02       0.155727584427293E+01        9        8        1         2
                  3       0.381512726614876E+02       0.100000000000000E+02       0.5000000E+00       0.125000000000000E+02       0.166582838095914E+01       10        8        1         2
                  3       0.400000000000000E+02       0.893429108677205E+01       0.5000000E+00       0.125000000000000E+02       0.170460989704513E+01       10        9        1         2
                  3       0.450000000000000E+02       0.611554854384974E+01       0.5000000E+00       0.125000000000000E+02       0.178584914202633E+01       10       10        1         2
                  3       0.479149688023616E+02       0.500000000000000E+01       0.5000000E+00       0.125000000000000E+02       0.181764369022145E+01       11       10        1         2
                  3       0.500000000000000E+02       0.445304878426545E+01       0.5000000E+00       0.125000000000000E+02       0.183795192220904E+01       11       11        1         2
                  3       0.550000000000000E+02       0.446592928411713E+01       0.5000000E+00       0.125000000000000E+02       0.188400335676410E+01       11       12        1         2
                  3       0.569445386372442E+02       0.500000000000000E+01       0.5000000E+00       0.125000000000000E+02       0.190297108366371E+01       10       12        1         2
                  3       0.600000000000000E+02       0.624779960809957E+01       0.5000000E+00       0.125000000000000E+02       0.193642585103537E+01       10       13        1         2
                  3       0.639510170418926E+02       0.854317369114183E+01       0.5000000E+00       0.125000000000000E+02       0.200000000000000E+01       10       13        1         2
                  4       0.374223912138377E+02       0.220716091391353E+02       0.5000000E+00       0.125000000000000E+02       0.100000000000000E+01        7        8        1         2
                  4       0.382153223831717E+02       0.200000000000000E+02       0.5000000E+00       0.125000000000000E+02       0.106327808306481E+01        8        8        1         2
                  4       0.400000000000000E+02       0.169640565224583E+02       0.5000000E+00       0.125000000000000E+02       0.115523086647921E+01        8        9        1         2
                  4       0.408371917521857E+02       0.150000000000000E+02       0.5000000E+00       0.125000000000000E+02       0.119935629118765E+01        9        9        1         2
                  4       0.441830042789280E+02       0.100000000000000E+02       0.5000000E+00       0.125000000000000E+02       0.130721271860475E+01       10        9        1         2
                  4       0.450000000000000E+02       0.948249310798543E+01       0.5000000E+00       0.125000000000000E+02       0.131847821907998E+01       10       10        1         2
                  4       0.500000000000000E+02       0.639182852373018E+01       0.5000000E+00       0.125000000000000E+02       0.136709298033475E+01       10       11        1         2
                  4       0.550000000000000E+02       0.640003501647263E+01       0.5000000E+00       0.125000000000000E+02       0.140339744341545E+01       10       12        1         2
                  4       0.600000000000000E+02       0.968937798976994E+01       0.5000000E+00       0.125000000000000E+02       0.145243069251406E+01       10       13        1         2
                  4       0.604539908599492E+02       0.100000000000000E+02       0.5000000E+00       0.125000000000000E+02       0.145875940805018E+01        9       13        1         2
                  4       0.632620222470950E+02       0.150000000000000E+02       0.5000000E+00       0.125000000000000E+02       0.155891929926675E+01        8       13        1         2
                  4       0.646553617309704E+02       0.200000000000000E+02       0.5000000E+00       0.125000000000000E+02       0.166191398205222E+01        7       13        1         2
                  4       0.650000000000000E+02       0.237868629257965E+02       0.5000000E+00       0.125000000000000E+02       0.174295361212909E+01        7       14        1         2
                  4       0.651388248209115E+02       0.250000000000000E+02       0.5000000E+00       0.125000000000000E+02       0.177531045167283E+01        6       14        1         2
                  4       0.651388248209115E+02       0.250000000000000E+02       0.5000000E+00       0.125000000000000E+02       0.177531045167283E+01        6       14        1         2
                  5       0.461789995865983E+02       0.164263315118927E+02       0.5000000E+00       0.125000000000000E+02       0.100000000000000E+01        8       10        1         2
                  5       0.464332960804425E+02       0.150000000000000E+02       0.5000000E+00       0.125000000000000E+02       0.102404783848050E+01        9       10        1         2
                  5       0.476090075948802E+02       0.100000000000000E+02       0.5000000E+00       0.125000000000000E+02       0.109030326766681E+01       10       10        1         2
                  5       0.500000000000000E+02       0.840865173679865E+01       0.5000000E+00       0.125000000000000E+02       0.110992171835557E+01       10       11        1         2
                  5       0.550000000000000E+02       0.841227112907492E+01       0.5000000E+00       0.125000000000000E+02       0.114622618143627E+01       10       12        1         2
                  5       0.573106329004834E+02       0.100000000000000E+02       0.5000000E+00       0.125000000000000E+02       0.116512616493847E+01        9       12        1         2
                  5       0.582828918648875E+02       0.150000000000000E+02       0.5000000E+00       0.125000000000000E+02       0.122770873361303E+01        8       12        1         2
                  5       0.589546154483450E+02       0.200000000000000E+02       0.5000000E+00       0.125000000000000E+02       0.130988431933982E+01        7       12        1         2
                  5       0.591921194395172E+02       0.250000000000000E+02       0.5000000E+00       0.125000000000000E+02       0.140286395072371E+01        6       12        1         2
                  5       0.591921194395172E+02       0.250000000000000E+02       0.5000000E+00       0.125000000000000E+02       0.140286395072371E+01        6       12        1         2
                  1       0.137198990128384E-01       0.161936071381797E+02       0.5000000E+00       0.125000000000000E+02       0.200000000000000E+01        8        1        1         3
                  1       0.145876303437159E-01       0.150000000000000E+02       0.5000000E+00       0.125000000000000E+02       0.211044991239531E+01        9        1        1         3
                  1       0.152537381361391E-01       0.142872305906791E+02       0.5000000E+00       0.125000000000000E+02       0.218000000000000E+01        9        1        1         3
                  2       0.242541744139392E+02       0.126705250572878E+02       0.5000000E+00       0.125000000000000E+02       0.200000000000000E+01        9        5        1         3
                  2       0.250000000000000E+02       0.121035822226803E+02       0.5000000E+00       0.125000000000000E+02       0.204195212672279E+01        9        6        1         3
                  2       0.276048687978682E+02       0.100000000000000E+02       0.5000000E+00       0.125000000000000E+02       0.217697420668731E+01       10        6        1         3
                  2       0.276798276251217E+02       0.995587275419748E+01       0.5000000E+00       0.125000000000000E+02       0.218000000000000E+01       10        6        1         3
                  3       0.639510170418926E+02       0.854317369114183E+01       0.5000000E+00       0.125000000000000E+02       0.200000000000000E+01       10       13        1         3
                  3       0.650000000000000E+02       0.948705238372400E+01       0.5000000E+00       0.125000000000000E+02       0.202109003726372E+01       10       14        1         3
                  3       0.657838636081727E+02       0.100000000000000E+02       0.5000000E+00       0.125000000000000E+02       0.203814917777204E+01        9       14        1         3
                  3       0.693641294606793E+02       0.147129845718289E+02       0.5000000E+00       0.125000000000000E+02       0.218000000000000E+01        9       14        1         3
                  1       0.152537381361391E-01       0.142872305906791E+02       0.5000000E+00       0.125000000000000E+02       0.218000000000000E+01        9        1        1         3
                  1       0.210296326161328E-01       0.100000000000000E+02       0.5000000E+00       0.125000000000000E+02       0.268017362090364E+01       10        1        1         3
                  1       0.263794174322936E-01       0.791986829648532E+01       0.5000000E+00       0.125000000000000E+02       0.300000000000000E+01       10        1        1         3
                  2       0.276798276251217E+02       0.995587275419748E+01       0.5000000E+00       0.125000000000000E+02       0.218000000000000E+01       10        6        1         3
                  2       0.300000000000000E+02       0.874760526781230E+01       0.5000000E+00       0.125000000000000E+02       0.226803639978231E+01       10        7        1         3
                  2       0.350000000000000E+02       0.637166623286259E+01       0.5000000E+00       0.125000000000000E+02       0.242324743169630E+01       10        8        1         3
                  2       0.382342616255058E+02       0.500000000000000E+01       0.5000000E+00       0.125000000000000E+02       0.250205981669246E+01       11        8        1         3
                  2       0.400000000000000E+02       0.451835423242825E+01       0.5000000E+00       0.125000000000000E+02       0.253442655075292E+01       11        9        1         3
                  2       0.450000000000000E+02       0.323144032927561E+01       0.5000000E+00       0.125000000000000E+02       0.260779506010750E+01       11       10        1         3
                  2       0.500000000000000E+02       0.238375986153878E+01       0.5000000E+00       0.125000000000000E+02       0.266112960242501E+01       11       11        1         3
                  2       0.550000000000000E+02       0.239065491480230E+01       0.5000000E+00       0.125000000000000E+02       0.270718097346854E+01       11       12        1         3
                  2       0.600000000000000E+02       0.329587129047944E+01       0.5000000E+00       0.125000000000000E+02       0.276109880281574E+01       11       13        1         3
                  2       0.650000000000000E+02       0.474796688737027E+01       0.5000000E+00       0.125000000000000E+02       0.283698857623008E+01       11       14        1         3
                  2       0.658318850801185E+02       0.500000000000000E+01       0.5000000E+00       0.125000000000000E+02       0.285262497645317E+01       10       14        1         3
                  2       0.700000000000000E+02       0.710108873418228E+01       0.5000000E+00       0.125000000000000E+02       0.296102759683986E+01       10       15        1         3
                  2       0.712327871300021E+02       0.771827317055759E+01       0.5000000E+00       0.125000000000000E+02       0.300000000000000E+01       10       15        1         3
                  3       0.693641294606793E+02       0.147129845718289E+02       0.5000000E+00       0.125000000000000E+02       0.218000000000000E+01        9       14        1         3
                  3       0.695503541949046E+02       0.150000000000000E+02       0.5000000E+00       0.125000000000000E+02       0.218799096909287E+01        8       14        1         3
                  3       0.700000000000000E+02       0.162637775652087E+02       0.5000000E+00       0.125000000000000E+02       0.222287293844767E+01        8       15        1         3
                  3       0.716738590957276E+02       0.200000000000000E+02       0.5000000E+00       0.125000000000000E+02       0.235770966653232E+01        7       15        1         3
                  3       0.723386796624492E+02       0.250000000000000E+02       0.5000000E+00       0.125000000000000E+02       0.253020189937939E+01        6       15        1         3
                  3       0.723386796624492E+02       0.250000000000000E+02       0.5000000E+00       0.125000000000000E+02       0.253020189937939E+01        6       15        1         3
                  1       0.263794174322936E-01       0.791986829648532E+01       0.5000000E+00       0.125000000000000E+02       0.300000000000000E+01       10        1        1         4
                  1       0.410312399877639E-01       0.500000000000000E+01       0.5000000E+00       0.125000000000000E+02       0.362334987756258E+01       11        1        1         4
                  1       0.543244027960538E-01       0.377650170787928E+01       0.5000000E+00       0.125000000000000E+02       0.400000000000000E+01       11        1        1         4
                  2       0.712327871300021E+02       0.771827317055759E+01       0.5000000E+00       0.125000000000000E+02       0.300000000000000E+01       10       15        1         4
                  2       0.745880145338782E+02       0.100000000000000E+02       0.5000000E+00       0.125000000000000E+02       0.312337196152627E+01        9       15        1         4
                  2       0.750000000000000E+02       0.104938127619331E+02       0.5000000E+00       0.125000000000000E+02       0.314688926118800E+01        9       16        1         4
                  2       0.790528375981324E+02       0.150000000000000E+02       0.5000000E+00       0.125000000000000E+02       0.341067458757527E+01        8       16        1         4
                  2       0.800000000000000E+02       0.173184857305621E+02       0.5000000E+00       0.125000000000000E+02       0.352774537667333E+01        8       17        1         4
                  2       0.812740447864405E+02       0.200000000000000E+02       0.5000000E+00       0.125000000000000E+02       0.369589203711980E+01        7       17        1         4
                  2       0.819924474347201E+02       0.250000000000000E+02       0.5000000E+00       0.125000000000000E+02       0.399195188358781E+01        6       17        1         4
                  2       0.819924474347201E+02       0.250000000000000E+02       0.5000000E+00       0.125000000000000E+02       0.399195188358781E+01        6       17        1         4
                  1       0.543244027960538E-01       0.377650170787928E+01       0.5000000E+00       0.125000000000000E+02       0.400000000000000E+01       11        1        1         5
                  1       0.710374660990279E-01       0.288799996966146E+01       0.5000000E+00       0.125000000000000E+02       0.436000000000000E+01       11        1        1         5
                  1       0.710374660990279E-01       0.288799996966146E+01       0.5000000E+00       0.125000000000000E+02       0.436000000000000E+01       11        1        1         5
                  1       0.114441947972083E+00       0.179266609468117E+01       0.5000000E+00       0.125000000000000E+02       0.500000000000000E+01       11        1        1         5
                  1       0.114441947972083E+00       0.179266609468117E+01       0.5000000E+00       0.125000000000000E+02       0.500000000000000E+01       11        1        1         6
                  1       0.241087960134857E+00       0.850959955959897E+00       0.5000000E+00       0.125000000000000E+02       0.600000000000000E+01       11        1        1         6
                  1       0.241087960134857E+00       0.850959955959897E+00       0.5000000E+00       0.125000000000000E+02       0.600000000000000E+01       11        1        1         7
                  1       0.360507474942602E+00       0.569076133501762E+00       0.5000000E+00       0.125000000000000E+02       0.654000000000000E+01       11        1        1         7
                  1       0.360507474942602E+00       0.569076133501762E+00       0.5000000E+00       0.125000000000000E+02       0.654000000000000E+01       11        1        1         7
                  1       0.507885487375356E+00       0.403941843266723E+00       0.5000000E+00       0.125000000000000E+02       0.700000000000000E+01       11        1        1         7
                  1       0.507885487375356E+00       0.403941843266723E+00       0.5000000E+00       0.125000000000000E+02       0.700000000000000E+01       11        1        1         8
                  1       0.106993177155016E+01       0.191746993027023E+00       0.5000000E+00       0.125000000000000E+02       0.800000000000000E+01       11        1        1         8
                  1       0.106993177155016E+01       0.191746993027023E+00       0.5000000E+00       0.125000000000000E+02       0.800000000000000E+01       11        1        1         9
                  1       0.182953653369781E+01       0.112135612577336E+00       0.5000000E+00       0.125000000000000E+02       0.872000000000000E+01       11        1        1         9
                  1       0.182953653369781E+01       0.112135612577336E+00       0.5000000E+00       0.125000000000000E+02       0.872000000000000E+01       11        1        1         9
                  1       0.225396083217167E+01       0.910203039070353E-01       0.5000000E+00       0.125000000000000E+02       0.900000000000000E+01       11        1        1         9
                  1       0.225396083217167E+01       0.910203039070353E-01       0.5000000E+00       0.125000000000000E+02       0.900000000000000E+01       11        1        1        10