# CHD package for  MODFLOW-2000, generated by Flopy.
        56
        56         0 # stress period 1
         1         1         1       100       100
         1         1         2       100       100
         1         1         3       100       100
         1         1         4       100       100
         1         1         5       100       100
         1         1         6       100       100
         1         1         7       100       100
         1         1         8       100       100
         1         2         9       100       100
         1         2        10       100       100
         1         2        11       100       100
         1         2        12       100       100
         1         3        13       100       100
         1         3        14       100       100
         1         3        15       100       100
         1         4        16       100       100
         1         4        17       100       100
         1         5        18       100       100
         1         5        19       100       100
         1         6        20       100       100
         1         7        21       100       100
         1         7        22       100       100
         1         8        23       100       100
         1         9        24       100       100
         1         9        25       100       100
         1        10        26       100       100
         1        11        27       100       100
         1        12        28       100       100
         1        13        29       100       100
         1        14        30       100       100
         1        15        31       100       100
         1        16        32       100       100
         1        17        33       100       100
         1        18        33       100       100
         1        19        34       100       100
         1        20        34       100       100
         1        21        35       100       100
         1        22        36       100       100
         1        23        36       100       100
         1        24        37       100       100
         1        25        37       100       100
         1        26        38       100       100
         1        27        38       100       100
         1        28        38       100       100
         1        29        39       100       100
         1        30        39       100       100
         1        31        39       100       100
         1        32        39       100       100
         1        33        40       100       100
         1        34        40       100       100
         1        35        40       100       100
         1        36        40       100       100
         1        37        40       100       100
         1        38        40       100       100
         1        39        40       100       100
         1        40        40       100       100
        -1         0 # stress period 2
        -1         0 # stress period 3
        -1         0 # stress period 4
        -1         0 # stress period 5
        -1         0 # stress period 6
        -1         0 # stress period 7
        -1         0 # stress period 8
        -1         0 # stress period 9
        -1         0 # stress period 10
        -1         0 # stress period 11
        -1         0 # stress period 12
        -1         0 # stress period 13
        -1         0 # stress period 14
        -1         0 # stress period 15
