# Name file for MODFLOW-2000, generated by Flopy version 3.2.9.
#xul:0; yul:4000; rotation:0; proj4_str:+init=EPSG:4326; units:meters; lenuni:2; length_multiplier:1.0 ;start_datetime:1-1-1970
GLOBAL             1  test_case_1.glo
LIST               2  test_case_1.list
DIS               11  test_case_1.dis 
BAS6              13  test_case_1.bas 
LPF               15  test_case_1.lpf 
PCG               27  test_case_1.pcg 
OC                14  test_case_1.oc 
WEL               20  test_case_1.wel 
CHD               24  test_case_1.chd 
DATA(BINARY)      53  test_case_1.cbc REPLACE
DATA(BINARY)      51  test_case_1.hds REPLACE
