# CHD package for  MODFLOW-2000, generated by Flopy.
        20
        20         0 # stress period 1
         1         1         1   5.5000000E+01   5.5000000E+01
         1         1         2   5.5000000E+01   5.5000000E+01
         1         1         3   5.5000000E+01   5.5000000E+01
         1         1         4   5.5000000E+01   5.5000000E+01
         1         1         5   5.5000000E+01   5.5000000E+01
         1         1         6   5.5000000E+01   5.5000000E+01
         1         1         7   5.5000000E+01   5.5000000E+01
         1         1         8   5.5000000E+01   5.5000000E+01
         1         1         9   5.5000000E+01   5.5000000E+01
         1         1        10   5.5000000E+01   5.5000000E+01
         1         6        12   2.5000000E+01   2.5000000E+01
         1         6        13   2.5000000E+01   2.5000000E+01
         1         6        14   2.5000000E+01   2.5000000E+01
         1         6        15   2.5000000E+01   2.5000000E+01
         1         6        16   2.5000000E+01   2.5000000E+01
         1         6        17   2.5000000E+01   2.5000000E+01
         1         6        18   2.5000000E+01   2.5000000E+01
         1         6        19   2.5000000E+01   2.5000000E+01
         1         6        20   2.5000000E+01   2.5000000E+01
         1         6        21   2.5000000E+01   2.5000000E+01
        -1         0 # stress period 2
        -1         0 # stress period 3
        -1         0 # stress period 4
        -1         0 # stress period 5
        -1         0 # stress period 6
        -1         0 # stress period 7
        -1         0 # stress period 8
        -1         0 # stress period 9
        -1         0 # stress period 10
        -1         0 # stress period 11
        -1         0 # stress period 12
        -1         0 # stress period 13
        -1         0 # stress period 14
        -1         0 # stress period 15
        -1         0 # stress period 16
        -1         0 # stress period 17
        -1         0 # stress period 18
        -1         0 # stress period 19
        -1         0 # stress period 20
        -1         0 # stress period 21
        -1         0 # stress period 22
        -1         0 # stress period 23
        -1         0 # stress period 24
        -1         0 # stress period 25
        -1         0 # stress period 26
        -1         0 # stress period 27
        -1         0 # stress period 28
        -1         0 # stress period 29
        -1         0 # stress period 30
