@ [ MODPATH 6.0 (TREF=   0.000000E+00 ) ] 
                  1       0.310500000000000E+05       0.997505000000000E+04       0.5000000E+00       0.100000000000000E+03       0.000000000000000E+00      201      621        1         1
                  1       0.310500000000000E+05       0.997505000000000E+04       0.5000000E+00       0.100000000000000E+03       0.000000000000000E+00      201      622        1         1
                  1       0.310523796508818E+05       0.997505136572368E+04       0.5000000E+00       0.100000000000000E+03       0.100000000000000E+01      201      622        1         1
                  2       0.310500000000000E+05       0.997495000000000E+04       0.5000000E+00       0.100000000000000E+03       0.000000000000000E+00      201      621        1         1
                  2       0.310500000000000E+05       0.997495000000000E+04       0.5000000E+00       0.100000000000000E+03       0.000000000000000E+00      201      622        1         1
                  2       0.310523796508818E+05       0.997494867225436E+04       0.5000000E+00       0.100000000000000E+03       0.100000000000000E+01      201      622        1         1
                  1       0.310523796508818E+05       0.997505136572368E+04       0.5000000E+00       0.100000000000000E+03       0.100000000000000E+01      201      622        1         1
                  1       0.311000000000000E+05       0.997511224747478E+04       0.5000000E+00       0.100000000000000E+03       0.301351638640145E+02      201      623        1         1
                  1       0.311500000000000E+05       0.997519422537274E+04       0.5000000E+00       0.100000000000000E+03       0.899305639691060E+02      201      624        1         1
                  1       0.312000000000000E+05       0.997528423334076E+04       0.5000000E+00       0.100000000000000E+03       0.184961571015874E+03      201      625        1         1
                  1       0.312500000000000E+05       0.997537782292863E+04       0.5000000E+00       0.100000000000000E+03       0.316849714104163E+03      201      626        1         1
                  1       0.313000000000000E+05       0.997547453837974E+04       0.5000000E+00       0.100000000000000E+03       0.486192023295819E+03      201      627        1         1
                  1       0.313500000000000E+05       0.997557475511405E+04       0.5000000E+00       0.100000000000000E+03       0.693640792514410E+03      201      628        1         1
                  1       0.314000000000000E+05       0.997567883744572E+04       0.5000000E+00       0.100000000000000E+03       0.940033357714631E+03      201      629        1         1
                  1       0.314500000000000E+05       0.997578706279591E+04       0.5000000E+00       0.100000000000000E+03       0.122634237676004E+04      201      630        1         1
                  1       0.315000000000000E+05       0.997589965943936E+04       0.5000000E+00       0.100000000000000E+03       0.155363316387826E+04      201      631        1         1
                  1       0.315500000000000E+05       0.997601683618549E+04       0.5000000E+00       0.100000000000000E+03       0.192304221174992E+04      201      632        1         1
                  1       0.316000000000000E+05       0.997613879723818E+04       0.5000000E+00       0.100000000000000E+03       0.233576782561859E+04      201      633        1         1
                  1       0.316500000000000E+05       0.997626574939135E+04       0.5000000E+00       0.100000000000000E+03       0.279306664996098E+04      201      634        1         1
                  1       0.317000000000000E+05       0.997639790567875E+04       0.5000000E+00       0.100000000000000E+03       0.329625306504393E+04      201      635        1         1
                  1       0.317500000000000E+05       0.997653548791480E+04       0.5000000E+00       0.100000000000000E+03       0.384670001750238E+04      201      636        1         1
                  1       0.318000000000000E+05       0.997667872806929E+04       0.5000000E+00       0.100000000000000E+03       0.444584077365679E+04      201      637        1         1
                  1       0.318500000000000E+05       0.997682786950406E+04       0.5000000E+00       0.100000000000000E+03       0.509517132683712E+04      201      638        1         1
                  1       0.319000000000000E+05       0.997698316851997E+04       0.5000000E+00       0.100000000000000E+03       0.579625331652437E+04      201      639        1         1
                  1       0.319500000000000E+05       0.997714489513120E+04       0.5000000E+00       0.100000000000000E+03       0.655071721664509E+04      201      640        1         1
                  1       0.320000000000000E+05       0.997731333436927E+04       0.5000000E+00       0.100000000000000E+03       0.736026594621175E+04      201      641        1         1
                  1       0.320500000000000E+05       0.997748878770721E+04       0.5000000E+00       0.100000000000000E+03       0.822667891733706E+04      201      642        1         1
                  1       0.321000000000000E+05       0.997767157404378E+04       0.5000000E+00       0.100000000000000E+03       0.915181624470835E+04      201      643        1         1
                  1       0.321500000000000E+05       0.997786203118069E+04       0.5000000E+00       0.100000000000000E+03       0.101376234475923E+05      201      644        1         1
                  1       0.322000000000000E+05       0.997806051735252E+04       0.5000000E+00       0.100000000000000E+03       0.111861366914717E+05      201      645        1         1
                  1       0.322500000000000E+05       0.997826741266713E+04       0.5000000E+00       0.100000000000000E+03       0.122994881223413E+05      201      646        1         1
                  1       0.323000000000000E+05       0.997848312140996E+04       0.5000000E+00       0.100000000000000E+03       0.134799119150309E+05      201      647        1         1
                  1       0.323500000000000E+05       0.997870807330963E+04       0.5000000E+00       0.100000000000000E+03       0.147297507713049E+05      201      648        1         1
                  1       0.324000000000000E+05       0.997894272596729E+04       0.5000000E+00       0.100000000000000E+03       0.160514627035251E+05      201      649        1         1
                  1       0.324500000000000E+05       0.997918756729770E+04       0.5000000E+00       0.100000000000000E+03       0.174476288184560E+05      201      650        1         1
                  1       0.325000000000000E+05       0.997944311782786E+04       0.5000000E+00       0.100000000000000E+03       0.189209614613431E+05      201      651        1         1
                  1       0.325500000000000E+05       0.997970993361313E+04       0.5000000E+00       0.100000000000000E+03       0.204743130427911E+05      201      652        1         1
                  1       0.326000000000000E+05       0.997998860935969E+04       0.5000000E+00       0.100000000000000E+03       0.221106858451364E+05      201      653        1         1
                  1       0.326500000000000E+05       0.998027978188044E+04       0.5000000E+00       0.100000000000000E+03       0.238332424726626E+05      201      654        1         1
                  1       0.327000000000000E+05       0.998058413398552E+04       0.5000000E+00       0.100000000000000E+03       0.256453173477894E+05      201      655        1         1
                  1       0.327500000000000E+05       0.998090239837943E+04       0.5000000E+00       0.100000000000000E+03       0.275504292911187E+05      201      656        1         1
                  1       0.328000000000000E+05       0.998123536281905E+04       0.5000000E+00       0.100000000000000E+03       0.295522953870792E+05      201      657        1         1
                  1       0.328500000000000E+05       0.998158387499500E+04       0.5000000E+00       0.100000000000000E+03       0.316548458403504E+05      201      658        1         1
                  1       0.329000000000000E+05       0.998194884849998E+04       0.5000000E+00       0.100000000000000E+03       0.338622402162967E+05      201      659        1         1
                  1       0.329500000000000E+05       0.998233126952925E+04       0.5000000E+00       0.100000000000000E+03       0.361788860319741E+05      201      660        1         1
                  1       0.330000000000000E+05       0.998273220406584E+04       0.5000000E+00       0.100000000000000E+03       0.386094584395060E+05      201      661        1         1
                  1       0.330500000000000E+05       0.998315280617425E+04       0.5000000E+00       0.100000000000000E+03       0.411589220325539E+05      201      662        1         1
                  1       0.331000000000000E+05       0.998359432730275E+04       0.5000000E+00       0.100000000000000E+03       0.438325551357059E+05      201      663        1         1
                  1       0.331500000000000E+05       0.998405812686060E+04       0.5000000E+00       0.100000000000000E+03       0.466359767490627E+05      201      664        1         1
                  1       0.332000000000000E+05       0.998454568419609E+04       0.5000000E+00       0.100000000000000E+03       0.495751764621296E+05      201      665        1         1
                  1       0.332500000000000E+05       0.998505861186649E+04       0.5000000E+00       0.100000000000000E+03       0.526565473091518E+05      201      666        1         1
                  1       0.333000000000000E+05       0.998559867142297E+04       0.5000000E+00       0.100000000000000E+03       0.558869226462339E+05      201      667        1         1
                  1       0.333500000000000E+05       0.998616779050211E+04       0.5000000E+00       0.100000000000000E+03       0.592736175549701E+05      201      668        1         1
                  1       0.334000000000000E+05       0.998676808339886E+04       0.5000000E+00       0.100000000000000E+03       0.628244746344655E+05      201      669        1         1
                  1       0.334500000000000E+05       0.998740187405982E+04       0.5000000E+00       0.100000000000000E+03       0.665479157917221E+05      201      670        1         1
                  1       0.335000000000000E+05       0.998807172254106E+04       0.5000000E+00       0.100000000000000E+03       0.704530010797003E+05      201      671        1         1
                  1       0.335500000000000E+05       0.998878045624628E+04       0.5000000E+00       0.100000000000000E+03       0.745494939320157E+05      201      672        1         1
                  1       0.336000000000000E+05       0.998953120537695E+04       0.5000000E+00       0.100000000000000E+03       0.788479356006436E+05      201      673        1         1
                  1       0.336500000000000E+05       0.999032744488564E+04       0.5000000E+00       0.100000000000000E+03       0.833597301826323E+05      201      674        1         1
                  1       0.337000000000000E+05       0.999117304306921E+04       0.5000000E+00       0.100000000000000E+03       0.880972406416192E+05      201      675        1         1
                  1       0.337500000000000E+05       0.999207231900075E+04       0.5000000E+00       0.100000000000000E+03       0.930738990079383E+05      201      676        1         1
                  1       0.338000000000000E+05       0.999303011036215E+04       0.5000000E+00       0.100000000000000E+03       0.983043331811928E+05      201      677        1         1
                  1       0.338500000000000E+05       0.999405185331433E+04       0.5000000E+00       0.100000000000000E+03       0.103804513162796E+06      201      678        1         1
                  1       0.339000000000000E+05       0.999514367844971E+04       0.5000000E+00       0.100000000000000E+03       0.109591919433757E+06      201      679        1         1
                  1       0.339500000000000E+05       0.999631252493758E+04       0.5000000E+00       0.100000000000000E+03       0.115685738724362E+06      201      680        1         1
                  1       0.340000000000000E+05       0.999756627881926E+04       0.5000000E+00       0.100000000000000E+03       0.122107093982063E+06      201      681        1         1
                  1       0.340500000000000E+05       0.999891394011663E+04       0.5000000E+00       0.100000000000000E+03       0.128879313390332E+06      201      682        1         1
                  1       0.340879094990277E+05       0.100000000000000E+05       0.5000000E+00       0.100000000000000E+03       0.134263426784922E+06      200      682        1         1
                  1       0.341000000000000E+05       0.100003661903826E+05       0.5000000E+00       0.100000000000000E+03       0.136030000221927E+06      200      683        1         1
                  1       0.341500000000000E+05       0.100019357628027E+05       0.5000000E+00       0.100000000000000E+03       0.143591937790534E+06      200      684        1         1
                  1       0.342000000000000E+05       0.100036353751447E+05       0.5000000E+00       0.100000000000000E+03       0.151591945075361E+06      200      685        1         1
                  1       0.342500000000000E+05       0.100054810876453E+05       0.5000000E+00       0.100000000000000E+03       0.160066070132887E+06      200      686        1         1
                  1       0.343000000000000E+05       0.100074917178172E+05       0.5000000E+00       0.100000000000000E+03       0.169054913601942E+06      200      687        1         1
                  1       0.343500000000000E+05       0.100096894576435E+05       0.5000000E+00       0.100000000000000E+03       0.178604427317603E+06      200      688        1         1
                  1       0.344000000000000E+05       0.100121006665045E+05       0.5000000E+00       0.100000000000000E+03       0.188766897747016E+06      200      689        1         1
                  1       0.344500000000000E+05       0.100147568981281E+05       0.5000000E+00       0.100000000000000E+03       0.199602166172672E+06      200      690        1         1
                  1       0.345000000000000E+05       0.100176962448686E+05       0.5000000E+00       0.100000000000000E+03       0.211179154388284E+06      200      691        1         1
                  1       0.345500000000000E+05       0.100209651253162E+05       0.5000000E+00       0.100000000000000E+03       0.223577800198079E+06      200      692        1         1
                  1       0.346000000000000E+05       0.100246206900578E+05       0.5000000E+00       0.100000000000000E+03       0.236891533914294E+06      200      693        1         1
                  1       0.346500000000000E+05       0.100287341141978E+05       0.5000000E+00       0.100000000000000E+03       0.251230495920266E+06      200      694        1         1
                  1       0.347000000000000E+05       0.100333951806445E+05       0.5000000E+00       0.100000000000000E+03       0.266725775510972E+06      200      695        1         1
                  1       0.347500000000000E+05       0.100387187861121E+05       0.5000000E+00       0.100000000000000E+03       0.283535078088329E+06      200      696        1         1
                  1       0.348000000000000E+05       0.100448543799338E+05       0.5000000E+00       0.100000000000000E+03       0.301850452646231E+06      200      697        1         1
                  1       0.348369299667996E+05       0.100500000000000E+05       0.5000000E+00       0.100000000000000E+03       0.316481580967156E+06      199      697        1         1
                  1       0.348500000000000E+05       0.100520088928796E+05       0.5000000E+00       0.100000000000000E+03       0.321932961015040E+06      199      698        1         1
                  1       0.349000000000000E+05       0.100604730882659E+05       0.5000000E+00       0.100000000000000E+03       0.344133552491841E+06      199      699        1         1
                  1       0.349500000000000E+05       0.100706020717593E+05       0.5000000E+00       0.100000000000000E+03       0.368774180897077E+06      199      700        1         1
                  1       0.350000000000000E+05       0.100829353290118E+05       0.5000000E+00       0.100000000000000E+03       0.396358115851988E+06      199      701        1         1
                  1       0.350500000000000E+05       0.100982736506242E+05       0.5000000E+00       0.100000000000000E+03       0.427561642462989E+06      199      702        1         1
                  1       0.350550205378230E+05       0.101000000000000E+05       0.5000000E+00       0.100000000000000E+03       0.430928938106662E+06      198      702        1         1
                  1       0.351000000000000E+05       0.101180598918557E+05       0.5000000E+00       0.100000000000000E+03       0.463670420150239E+06      198      703        1         1
                  1       0.351500000000000E+05       0.101442867329009E+05       0.5000000E+00       0.100000000000000E+03       0.505849063029691E+06      198      704        1         1
                  1       0.351592023891808E+05       0.101500000000000E+05       0.5000000E+00       0.100000000000000E+03       0.514424197054813E+06      197      704        1         1
                  1       0.352000000000000E+05       0.101813024050923E+05       0.5000000E+00       0.100000000000000E+03       0.557034550869111E+06      197      705        1         1
                  1       0.352196026815121E+05       0.102000000000000E+05       0.5000000E+00       0.100000000000000E+03       0.580203506164932E+06      196      705        1         1
                  1       0.352500000000000E+05       0.102378571394230E+05       0.5000000E+00       0.100000000000000E+03       0.621843098971882E+06      196      706        1         1
                  1       0.352582395475104E+05       0.102500000000000E+05       0.5000000E+00       0.100000000000000E+03       0.634305011489827E+06      195      706        1         1
                  1       0.352846128333347E+05       0.103000000000000E+05       0.5000000E+00       0.100000000000000E+03       0.680515701082005E+06      194      706        1         1
                  1       0.353000000000000E+05       0.103411095179884E+05       0.5000000E+00       0.100000000000000E+03       0.713577413154543E+06      194      707        1         1
                  1       0.353029761499302E+05       0.103500000000000E+05       0.5000000E+00       0.100000000000000E+03       0.720437517222704E+06      193      707        1         1
                  1       0.353162110276314E+05       0.104000000000000E+05       0.5000000E+00       0.100000000000000E+03       0.756300478300908E+06      192      707        1         1
                  1       0.353254871139492E+05       0.104500000000000E+05       0.5000000E+00       0.100000000000000E+03       0.788287509551902E+06      191      707        1         1
                  1       0.353317992549247E+05       0.105000000000000E+05       0.5000000E+00       0.100000000000000E+03       0.817179792068991E+06      190      707        1         1
                  1       0.353357965891682E+05       0.105500000000000E+05       0.5000000E+00       0.100000000000000E+03       0.843546160444417E+06      189      707        1         1
                  1       0.353379198890707E+05       0.106000000000000E+05       0.5000000E+00       0.100000000000000E+03       0.867813720709298E+06      188      707        1         1
                  1       0.353384781772734E+05       0.106500000000000E+05       0.5000000E+00       0.100000000000000E+03       0.890311353866122E+06      187      707        1         1
                  1       0.353376937947769E+05       0.107000000000000E+05       0.5000000E+00       0.100000000000000E+03       0.911297711509099E+06      186      707        1         1
                  1       0.353357301027627E+05       0.107500000000000E+05       0.5000000E+00       0.100000000000000E+03       0.930979896594944E+06      185      707        1         1
                  1       0.353327091550666E+05       0.108000000000000E+05       0.5000000E+00       0.100000000000000E+03       0.949526321670935E+06      184      707        1         1
                  1       0.353287233360279E+05       0.108500000000000E+05       0.5000000E+00       0.100000000000000E+03       0.967075790428232E+06      183      707        1         1
                  1       0.353238432399065E+05       0.109000000000000E+05       0.5000000E+00       0.100000000000000E+03       0.983744062214749E+06      182      707        1         1
                  1       0.353181231347886E+05       0.109500000000000E+05       0.5000000E+00       0.100000000000000E+03       0.999628695043634E+06      181      707        1         1
                  1       0.353116048327590E+05       0.110000000000000E+05       0.5000000E+00       0.100000000000000E+03       0.101481267777140E+07      180      707        1         1
                  1       0.353043204849169E+05       0.110500000000000E+05       0.5000000E+00       0.100000000000000E+03       0.102936719961828E+07      179      707        1         1
                  1       0.353000000000000E+05       0.110764357927150E+05       0.5000000E+00       0.100000000000000E+03       0.103682933522196E+07      179      706        1         1
                  1       0.352963918915251E+05       0.111000000000000E+05       0.5000000E+00       0.100000000000000E+03       0.104318237135257E+07      178      706        1         1
                  1       0.352878711668757E+05       0.111500000000000E+05       0.5000000E+00       0.100000000000000E+03       0.105630177981142E+07      177      706        1         1
                  1       0.352786572468993E+05       0.112000000000000E+05       0.5000000E+00       0.100000000000000E+03       0.106896752026127E+07      176      706        1         1
                  1       0.352687590288577E+05       0.112500000000000E+05       0.5000000E+00       0.100000000000000E+03       0.108121976899673E+07      175      706        1         1
                  1       0.352581821429797E+05       0.113000000000000E+05       0.5000000E+00       0.100000000000000E+03       0.109309410476658E+07      174      706        1         1
                  1       0.352500000000000E+05       0.113360692951782E+05       0.5000000E+00       0.100000000000000E+03       0.110144347694892E+07      174      705        1         1
                  1       0.352470084783822E+05       0.113500000000000E+05       0.5000000E+00       0.100000000000000E+03       0.110454034002625E+07      173      705        1         1
                  1       0.352353853805242E+05       0.114000000000000E+05       0.5000000E+00       0.100000000000000E+03       0.111546282536166E+07      172      705        1         1
                  1       0.352230993872501E+05       0.114500000000000E+05       0.5000000E+00       0.100000000000000E+03       0.112610182944980E+07      171      705        1         1
                  1       0.352101469909747E+05       0.115000000000000E+05       0.5000000E+00       0.100000000000000E+03       0.113647962130004E+07      170      705        1         1
                  1       0.352000000000000E+05       0.115370216133192E+05       0.5000000E+00       0.100000000000000E+03       0.114400735402464E+07      170      704        1         1
                  1       0.351966109811341E+05       0.115500000000000E+05       0.5000000E+00       0.100000000000000E+03       0.114655042196154E+07      169      704        1         1
                  1       0.351826677860825E+05       0.116000000000000E+05       0.5000000E+00       0.100000000000000E+03       0.115621483328702E+07      168      704        1         1
                  1       0.351680519156915E+05       0.116500000000000E+05       0.5000000E+00       0.100000000000000E+03       0.116567984330353E+07      167      704        1         1
                  1       0.351527545946012E+05       0.117000000000000E+05       0.5000000E+00       0.100000000000000E+03       0.117496025000783E+07      166      704        1         1
                  1       0.351500000000000E+05       0.117084862156566E+05       0.5000000E+00       0.100000000000000E+03       0.117651797534624E+07      166      703        1         1
                  1       0.351370928709952E+05       0.117500000000000E+05       0.5000000E+00       0.100000000000000E+03       0.118388262599350E+07      165      703        1         1
                  1       0.351208096456894E+05       0.118000000000000E+05       0.5000000E+00       0.100000000000000E+03       0.119261315739404E+07      164      703        1         1
                  1       0.351038248706667E+05       0.118500000000000E+05       0.5000000E+00       0.100000000000000E+03       0.120120171031246E+07      163      703        1         1
                  1       0.351000000000000E+05       0.118606791418376E+05       0.5000000E+00       0.100000000000000E+03       0.120301863156907E+07      163      702        1         1
                  1       0.350864626534897E+05       0.119000000000000E+05       0.5000000E+00       0.100000000000000E+03       0.120949712779904E+07      162      702        1         1
                  1       0.350684781650428E+05       0.119500000000000E+05       0.5000000E+00       0.100000000000000E+03       0.121763054318821E+07      161      702        1         1
                  1       0.350500000000000E+05       0.119993617810517E+05       0.5000000E+00       0.100000000000000E+03       0.122555315198339E+07      161      701        1         1
                  1       0.350497698394269E+05       0.120000000000000E+05       0.5000000E+00       0.100000000000000E+03       0.122565248233012E+07      160      701        1         1
                  1       0.350307743520830E+05       0.120500000000000E+05       0.5000000E+00       0.100000000000000E+03       0.123338680387937E+07      159      701        1         1
                  1       0.350110306040341E+05       0.121000000000000E+05       0.5000000E+00       0.100000000000000E+03       0.124103127420405E+07      158      701        1         1
                  1       0.350000000000000E+05       0.121267626419355E+05       0.5000000E+00       0.100000000000000E+03       0.124508846381568E+07      158      700        1         1
                  1       0.349907450680545E+05       0.121500000000000E+05       0.5000000E+00       0.100000000000000E+03       0.124851039421181E+07      157      700        1         1
                  1       0.349699503101002E+05       0.122000000000000E+05       0.5000000E+00       0.100000000000000E+03       0.125582039490922E+07      156      700        1         1
                  1       0.349500000000000E+05       0.122461895281485E+05       0.5000000E+00       0.100000000000000E+03       0.126251308866663E+07      156      699        1         1
                  1       0.349484065103850E+05       0.122500000000000E+05       0.5000000E+00       0.100000000000000E+03       0.126305004988155E+07      155      699        1         1
                  1       0.349265331984143E+05       0.123000000000000E+05       0.5000000E+00       0.100000000000000E+03       0.127006511093426E+07      154      699        1         1
                  1       0.349038478274497E+05       0.123500000000000E+05       0.5000000E+00       0.100000000000000E+03       0.127702583952918E+07      153      699        1         1
                  1       0.349000000000000E+05       0.123581346066231E+05       0.5000000E+00       0.100000000000000E+03       0.127815345214275E+07      153      698        1         1
                  1       0.348807750341191E+05       0.124000000000000E+05       0.5000000E+00       0.100000000000000E+03       0.128380619215396E+07      152      698        1         1
                  1       0.348569498585090E+05       0.124500000000000E+05       0.5000000E+00       0.100000000000000E+03       0.129051818930614E+07      151      698        1         1
                  1       0.348500000000000E+05       0.124640219644520E+05       0.5000000E+00       0.100000000000000E+03       0.129239336151099E+07      151      697        1         1
                  1       0.348326580556811E+05       0.125000000000000E+05       0.5000000E+00       0.100000000000000E+03       0.129708497613566E+07      150      697        1         1
                  1       0.348076516105622E+05       0.125500000000000E+05       0.5000000E+00       0.100000000000000E+03       0.130357731853708E+07      149      697        1         1
                  1       0.348000000000000E+05       0.125647294878667E+05       0.5000000E+00       0.100000000000000E+03       0.130548418620676E+07      149      696        1         1
                  1       0.347821514140894E+05       0.126000000000000E+05       0.5000000E+00       0.100000000000000E+03       0.130994130298311E+07      148      696        1         1
                  1       0.347559168656768E+05       0.126500000000000E+05       0.5000000E+00       0.100000000000000E+03       0.131623984244022E+07      147      696        1         1
                  1       0.347500000000000E+05       0.126608677182660E+05       0.5000000E+00       0.100000000000000E+03       0.131760601718383E+07      147      695        1         1