@ [ MODPATH 6.0 (TREF=   0.000000E+00 ) ] 
                  1       0.310500000000000E+05       0.997500000000000E+04       0.5000000E+00       0.100000000000000E+03       0.000000000000000E+00      201      621        1         1
                  1       0.310500000000000E+05       0.997500000000000E+04       0.5000000E+00       0.100000000000000E+03       0.000000000000000E+00      201      622        1         1
                  1       0.310500133989333E+05       0.997500000031224E+04       0.5000000E+00       0.100000000000000E+03       0.100000000000000E+01      201      622        1         1
                  1       0.310500133989333E+05       0.997500000031224E+04       0.5000000E+00       0.100000000000000E+03       0.100000000000000E+01      201      622        1         1
                  1       0.310802536343844E+05       0.100000000000000E+05       0.5000000E+00       0.100000000000000E+03       0.236507334640916E+05      200      622        1         1
                  1       0.310500000000000E+05       0.100208697780576E+05       0.5000000E+00       0.100000000000000E+03       0.255352023662558E+05      200      621        1         1
                  1       0.310245572887021E+05       0.100500000000000E+05       0.5000000E+00       0.100000000000000E+03       0.267357550638547E+05      199      621        1         1
                  1       0.310000000000000E+05       0.100646094260227E+05       0.5000000E+00       0.100000000000000E+03       0.275823524277623E+05      199      620        1         1
                  1       0.309500000000000E+05       0.100802218762445E+05       0.5000000E+00       0.100000000000000E+03       0.291418040152343E+05      199      619        1         1
                  1       0.309000000000000E+05       0.100894327828862E+05       0.5000000E+00       0.100000000000000E+03       0.306452191368339E+05      199      618        1         1
                  1       0.308500000000000E+05       0.100956507917772E+05       0.5000000E+00       0.100000000000000E+03       0.321636144930276E+05      199      617        1         1
                  1       0.308013408937063E+05       0.101000000000000E+05       0.5000000E+00       0.100000000000000E+03       0.336722226790832E+05      198      617        1         1
                  1       0.308000000000000E+05       0.101001257972380E+05       0.5000000E+00       0.100000000000000E+03       0.337153856073977E+05      198      616        1         1
                  1       0.307500000000000E+05       0.101035250956299E+05       0.5000000E+00       0.100000000000000E+03       0.353338227648753E+05      198      615        1         1
                  1       0.307000000000000E+05       0.101061082699751E+05       0.5000000E+00       0.100000000000000E+03       0.369699390043859E+05      198      614        1         1
                  1       0.306500000000000E+05       0.101081332860926E+05       0.5000000E+00       0.100000000000000E+03       0.386231395721244E+05      198      613        1         1
                  1       0.306000000000000E+05       0.101097609496026E+05       0.5000000E+00       0.100000000000000E+03       0.402918680939265E+05      198      612        1         1
                  1       0.305500000000000E+05       0.101110962814338E+05       0.5000000E+00       0.100000000000000E+03       0.419743612738819E+05      198      611        1         1
                  1       0.305000000000000E+05       0.101122106021158E+05       0.5000000E+00       0.100000000000000E+03       0.436689447552313E+05      198      610        1         1
                  1       0.304500000000000E+05       0.101131539603261E+05       0.5000000E+00       0.100000000000000E+03       0.453741304019536E+05      198      609        1         1
                  1       0.304000000000000E+05       0.101139624668221E+05       0.5000000E+00       0.100000000000000E+03       0.470886322415936E+05      198      608        1         1
                  1       0.303500000000000E+05       0.101146628031624E+05       0.5000000E+00       0.100000000000000E+03       0.488113516100801E+05      198      607        1         1
                  1       0.303000000000000E+05       0.101152750941981E+05       0.5000000E+00       0.100000000000000E+03       0.505413527710889E+05      198      606        1         1
                  1       0.302500000000000E+05       0.101158147951092E+05       0.5000000E+00       0.100000000000000E+03       0.522778380254941E+05      198      605        1         1
                  1       0.302000000000000E+05       0.101162939647736E+05       0.5000000E+00       0.100000000000000E+03       0.540201251357500E+05      198      604        1         1
                  1       0.301500000000000E+05       0.101167221457100E+05       0.5000000E+00       0.100000000000000E+03       0.557676280800187E+05      198      603        1         1
                  1       0.301000000000000E+05       0.101171069850126E+05       0.5000000E+00       0.100000000000000E+03       0.575198411994963E+05      198      602        1         1
                  1       0.300500000000000E+05       0.101174546806399E+05       0.5000000E+00       0.100000000000000E+03       0.592763257789745E+05      198      601        1         1
                  1       0.300000000000000E+05       0.101177703077815E+05       0.5000000E+00       0.100000000000000E+03       0.610366992133307E+05      198      600        1         1
                  1       0.299500000000000E+05       0.101180580611703E+05       0.5000000E+00       0.100000000000000E+03       0.628006262820806E+05      198      599        1         1
                  1       0.299000000000000E+05       0.101183214373719E+05       0.5000000E+00       0.100000000000000E+03       0.645678119858185E+05      198      598        1         1
                  1       0.298500000000000E+05       0.101185633737798E+05       0.5000000E+00       0.100000000000000E+03       0.663379955017664E+05      198      597        1         1
                  1       0.298000000000000E+05       0.101187863557374E+05       0.5000000E+00       0.100000000000000E+03       0.681109451812048E+05      198      596        1         1
                  1       0.297500000000000E+05       0.101189924999926E+05       0.5000000E+00       0.100000000000000E+03       0.698864544893458E+05      198      595        1         1
                  1       0.297000000000000E+05       0.101191836204088E+05       0.5000000E+00       0.100000000000000E+03       0.716643384535485E+05      198      594        1         1
                  1       0.296500000000000E+05       0.101193612801219E+05       0.5000000E+00       0.100000000000000E+03       0.734444309725268E+05      198      593        1         1
                  1       0.296000000000000E+05       0.101195268333390E+05       0.5000000E+00       0.100000000000000E+03       0.752265822893095E+05      198      592        1         1
                  1       0.295500000000000E+05       0.101196814589817E+05       0.5000000E+00       0.100000000000000E+03       0.770106569668416E+05      198      591        1         1
                  1       0.295000000000000E+05       0.101198261881465E+05       0.5000000E+00       0.100000000000000E+03       0.787965322195487E+05      198      590        1         1
                  1       0.294500000000000E+05       0.101199619264803E+05       0.5000000E+00       0.100000000000000E+03       0.805840962878567E+05      198      589        1         1
                  1       0.294000000000000E+05       0.101200894726801E+05       0.5000000E+00       0.100000000000000E+03       0.823732471870640E+05      198      588        1         1
                  1       0.293500000000000E+05       0.101202095337915E+05       0.5000000E+00       0.100000000000000E+03       0.841638916760432E+05      198      587        1         1
                  1       0.293000000000000E+05       0.101203227379719E+05       0.5000000E+00       0.100000000000000E+03       0.859559442878360E+05      198      586        1         1
                  1       0.292500000000000E+05       0.101204296451623E+05       0.5000000E+00       0.100000000000000E+03       0.877493265072714E+05      198      585        1         1
                  1       0.292000000000000E+05       0.101205307560954E+05       0.5000000E+00       0.100000000000000E+03       0.895439659350001E+05      198      584        1         1
                  1       0.291500000000000E+05       0.101206265198983E+05       0.5000000E+00       0.100000000000000E+03       0.913397956859030E+05      198      583        1         1
                  1       0.291000000000000E+05       0.101207173405845E+05       0.5000000E+00       0.100000000000000E+03       0.931367539426499E+05      198      582        1         1
                  1       0.290500000000000E+05       0.101208035825496E+05       0.5000000E+00       0.100000000000000E+03       0.949347835024958E+05      198      581        1         1
                  1       0.290000000000000E+05       0.101208855753212E+05       0.5000000E+00       0.100000000000000E+03       0.967338312354514E+05      198      580        1         1
                  1       0.289500000000000E+05       0.101209636176142E+05       0.5000000E+00       0.100000000000000E+03       0.985338477015008E+05      198      579        1         1
                  1       0.289000000000000E+05       0.101210379808566E+05       0.5000000E+00       0.100000000000000E+03       0.100334786928155E+06      198      578        1         1
                  1       0.288500000000000E+05       0.101211089122206E+05       0.5000000E+00       0.100000000000000E+03       0.102136605937248E+06      198      577        1         1
                  1       0.288000000000000E+05       0.101211766372733E+05       0.5000000E+00       0.100000000000000E+03       0.103939264515612E+06      198      576        1         1
                  1       0.287500000000000E+05       0.101212413622916E+05       0.5000000E+00       0.100000000000000E+03       0.105742725065965E+06      198      575        1         1
                  1       0.287000000000000E+05       0.101213032762701E+05       0.5000000E+00       0.100000000000000E+03       0.107546952373099E+06      198      574        1         1
                  1       0.286500000000000E+05       0.101213625526989E+05       0.5000000E+00       0.100000000000000E+03       0.109351913450884E+06      198      573        1         1
                  1       0.286000000000000E+05       0.101214193511245E+05       0.5000000E+00       0.100000000000000E+03       0.111157577387684E+06      198      572        1         1
                  1       0.285500000000000E+05       0.101214738185043E+05       0.5000000E+00       0.100000000000000E+03       0.112963914941434E+06      198      571        1         1
                  1       0.285000000000000E+05       0.101215260904358E+05       0.5000000E+00       0.100000000000000E+03       0.114770898547806E+06      198      570        1         1
                  1       0.284500000000000E+05       0.101215762922304E+05       0.5000000E+00       0.100000000000000E+03       0.116578502244620E+06      198      569        1         1
                  1       0.284000000000000E+05       0.101216245398705E+05       0.5000000E+00       0.100000000000000E+03       0.118386701595620E+06      198      568        1         1
                  1       0.283500000000000E+05       0.101216709408659E+05       0.5000000E+00       0.100000000000000E+03       0.120195473530194E+06      198      567        1         1
                  1       0.283000000000000E+05       0.101217155949932E+05       0.5000000E+00       0.100000000000000E+03       0.122004796099073E+06      198      566        1         1
                  1       0.282500000000000E+05       0.101217585950093E+05       0.5000000E+00       0.100000000000000E+03       0.123814648562071E+06      198      565        1         1
                  1       0.282000000000000E+05       0.101218000272345E+05       0.5000000E+00       0.100000000000000E+03       0.125625011392491E+06      198      564        1         1
                  1       0.281500000000000E+05       0.101218399721085E+05       0.5000000E+00       0.100000000000000E+03       0.127435866031030E+06      198      563        1         1
                  1       0.281000000000000E+05       0.101218785046814E+05       0.5000000E+00       0.100000000000000E+03       0.129247194722277E+06      198      562        1         1
                  1       0.280500000000000E+05       0.101219156950553E+05       0.5000000E+00       0.100000000000000E+03       0.131058980517509E+06      198      561        1         1
                  1       0.280000000000000E+05       0.101219516087917E+05       0.5000000E+00       0.100000000000000E+03       0.132871207527940E+06      198      560        1         1
                  1       0.279500000000000E+05       0.101219863072742E+05       0.5000000E+00       0.100000000000000E+03       0.134683860676943E+06      198      559        1         1
                  1       0.279000000000000E+05       0.101220198480200E+05       0.5000000E+00       0.100000000000000E+03       0.136496925368076E+06      198      558        1         1
                  1       0.278500000000000E+05       0.101220522850003E+05       0.5000000E+00       0.100000000000000E+03       0.138310387737578E+06      198      557        1         1
                  1       0.278000000000000E+05       0.101220836688974E+05       0.5000000E+00       0.100000000000000E+03       0.140124234656347E+06      198      556        1         1
                  1       0.277500000000000E+05       0.101221140473499E+05       0.5000000E+00       0.100000000000000E+03       0.141938453564381E+06      198      555        1         1
                  1       0.277000000000000E+05       0.101221434651852E+05       0.5000000E+00       0.100000000000000E+03       0.143753032388551E+06      198      554        1         1
                  1       0.276500000000000E+05       0.101221719646191E+05       0.5000000E+00       0.100000000000000E+03       0.145567959627650E+06      198      553        1         1
                  1       0.276000000000000E+05       0.101221995854464E+05       0.5000000E+00       0.100000000000000E+03       0.147383224353743E+06      198      552        1         1
                  1       0.275500000000000E+05       0.101222263652085E+05       0.5000000E+00       0.100000000000000E+03       0.149198816129604E+06      198      551        1         1
                  1       0.275000000000000E+05       0.101222523393521E+05       0.5000000E+00       0.100000000000000E+03       0.151014724842097E+06      198      550        1         1
                  1       0.274500000000000E+05       0.101222775413730E+05       0.5000000E+00       0.100000000000000E+03       0.152830940786877E+06      198      549        1         1
                  1       0.274000000000000E+05       0.101223020029462E+05       0.5000000E+00       0.100000000000000E+03       0.154647454669267E+06      198      548        1         1
                  1       0.273500000000000E+05       0.101223257540541E+05       0.5000000E+00       0.100000000000000E+03       0.156464257605108E+06      198      547        1         1
                  1       0.273000000000000E+05       0.101223488230959E+05       0.5000000E+00       0.100000000000000E+03       0.158281341205525E+06      198      546        1         1
                  1       0.272500000000000E+05       0.101223712369870E+05       0.5000000E+00       0.100000000000000E+03       0.160098697241793E+06      198      545        1         1
                  1       0.272000000000000E+05       0.101223930212547E+05       0.5000000E+00       0.100000000000000E+03       0.161916317729821E+06      198      544        1         1
                  1       0.271500000000000E+05       0.101224142001314E+05       0.5000000E+00       0.100000000000000E+03       0.163734195182758E+06      198      543        1         1
                  1       0.271000000000000E+05       0.101224347966336E+05       0.5000000E+00       0.100000000000000E+03       0.165552322443628E+06      198      542        1         1
                  1       0.270500000000000E+05       0.101224548326362E+05       0.5000000E+00       0.100000000000000E+03       0.167370692517691E+06      198      541        1         1
                  1       0.270000000000000E+05       0.101224743289402E+05       0.5000000E+00       0.100000000000000E+03       0.169189298488690E+06      198      540        1         1
                  1       0.269500000000000E+05       0.101224933053433E+05       0.5000000E+00       0.100000000000000E+03       0.171008133855620E+06      198      539        1         1
                  1       0.269000000000000E+05       0.101225117806978E+05       0.5000000E+00       0.100000000000000E+03       0.172827192533284E+06      198      538        1         1
                  1       0.268500000000000E+05       0.101225297729600E+05       0.5000000E+00       0.100000000000000E+03       0.174646468431968E+06      198      537        1         1
                  1       0.268000000000000E+05       0.101225472992531E+05       0.5000000E+00       0.100000000000000E+03       0.176465955710169E+06      198      536        1         1
                  1       0.267500000000000E+05       0.101225643759108E+05       0.5000000E+00       0.100000000000000E+03       0.178285648859119E+06      198      535        1         1
                  1       0.267000000000000E+05       0.101225810185155E+05       0.5000000E+00       0.100000000000000E+03       0.180105542366293E+06      198      534        1         1
                  1       0.266500000000000E+05       0.101225972419509E+05       0.5000000E+00       0.100000000000000E+03       0.181925630968261E+06      198      533        1         1
                  1       0.266000000000000E+05       0.101226130604383E+05       0.5000000E+00       0.100000000000000E+03       0.183745909735244E+06      198      532        1         1
                  1       0.265500000000000E+05       0.101226284875669E+05       0.5000000E+00       0.100000000000000E+03       0.185566373734349E+06      198      531        1         1
                  1       0.265000000000000E+05       0.101226435370749E+05       0.5000000E+00       0.100000000000000E+03       0.187387107473154E+06      198      530        1         1
                  1       0.264500000000000E+05       0.101226582206271E+05       0.5000000E+00       0.100000000000000E+03       0.189208014900172E+06      198      529        1         1
                  1       0.264000000000000E+05       0.101226725501318E+05       0.5000000E+00       0.100000000000000E+03       0.191029091662937E+06      198      528        1         1
                  1       0.263500000000000E+05       0.101226865369966E+05       0.5000000E+00       0.100000000000000E+03       0.192850333575252E+06      198      527        1         1
                  1       0.263000000000000E+05       0.101227001921533E+05       0.5000000E+00       0.100000000000000E+03       0.194671736786109E+06      198      526        1         1
                  1       0.262500000000000E+05       0.101227135260769E+05       0.5000000E+00       0.100000000000000E+03       0.196493297104911E+06      198      525        1         1
                  1       0.262000000000000E+05       0.101227265488180E+05       0.5000000E+00       0.100000000000000E+03       0.198315010845272E+06      198      524        1         1
                  1       0.261500000000000E+05       0.101227392700188E+05       0.5000000E+00       0.100000000000000E+03       0.200136874318933E+06      198      523        1         1
                  1       0.261000000000000E+05       0.101227516989336E+05       0.5000000E+00       0.100000000000000E+03       0.201958883835812E+06      198      522        1         1
                  1       0.260500000000000E+05       0.101227638444538E+05       0.5000000E+00       0.100000000000000E+03       0.203781036210672E+06      198      521        1         1
                  1       0.260000000000000E+05       0.101227757151135E+05       0.5000000E+00       0.100000000000000E+03       0.205603327750069E+06      198      520        1         1
                  1       0.259500000000000E+05       0.101227873191229E+05       0.5000000E+00       0.100000000000000E+03       0.207425755434566E+06      198      519        1         1
                  1       0.259000000000000E+05       0.101227986643698E+05       0.5000000E+00       0.100000000000000E+03       0.209248316074420E+06      198      518        1         1
                  1       0.258500000000000E+05       0.101228097584414E+05       0.5000000E+00       0.100000000000000E+03       0.211071006478485E+06      198      517        1         1
                  1       0.258000000000000E+05       0.101228206086398E+05       0.5000000E+00       0.100000000000000E+03       0.212893823792246E+06      198      516        1         1
                  1       0.257500000000000E+05       0.101228312219912E+05       0.5000000E+00       0.100000000000000E+03       0.214716764990969E+06      198      515        1         1
                  1       0.257000000000000E+05       0.101228416052623E+05       0.5000000E+00       0.100000000000000E+03       0.216539827386774E+06      198      514        1         1
                  1       0.256500000000000E+05       0.101228517649682E+05       0.5000000E+00       0.100000000000000E+03       0.218363008121638E+06      198      513        1         1
                  1       0.256000000000000E+05       0.101228617073890E+05       0.5000000E+00       0.100000000000000E+03       0.220186304674598E+06      198      512        1         1
                  1       0.255500000000000E+05       0.101228714385744E+05       0.5000000E+00       0.100000000000000E+03       0.222009714185508E+06      198      511        1         1
                  1       0.255000000000000E+05       0.101228809643613E+05       0.5000000E+00       0.100000000000000E+03       0.223833234469676E+06      198      510        1         1
                  1       0.254500000000000E+05       0.101228902903763E+05       0.5000000E+00       0.100000000000000E+03       0.225656862834162E+06      198      509        1         1
                  1       0.254000000000000E+05       0.101228994220492E+05       0.5000000E+00       0.100000000000000E+03       0.227480597092571E+06      198      508        1         1
                  1       0.253500000000000E+05       0.101229083646205E+05       0.5000000E+00       0.100000000000000E+03       0.229304434888559E+06      198      507        1         1
                  1       0.253000000000000E+05       0.101229171231479E+05       0.5000000E+00       0.100000000000000E+03       0.231128373864976E+06      198      506        1         1
                  1       0.252500000000000E+05       0.101229257025178E+05       0.5000000E+00       0.100000000000000E+03       0.232952412002336E+06      198      505        1         1
                  1       0.252000000000000E+05       0.101229341074506E+05       0.5000000E+00       0.100000000000000E+03       0.234776547280493E+06      198      504        1         1
                  1       0.251500000000000E+05       0.101229423425052E+05       0.5000000E+00       0.100000000000000E+03       0.236600777340132E+06      198      503        1         1
                  1       0.251000000000000E+05       0.101229504120896E+05       0.5000000E+00       0.100000000000000E+03       0.238425100329034E+06      198      502        1         1
                  1       0.250500000000000E+05       0.101229583204659E+05       0.5000000E+00       0.100000000000000E+03       0.240249514225120E+06      198      501        1         1
                  1       0.250000000000000E+05       0.101229660717552E+05       0.5000000E+00       0.100000000000000E+03       0.242074017005703E+06      198      500        1         1
                  1       0.249500000000000E+05       0.101229736699457E+05       0.5000000E+00       0.100000000000000E+03       0.243898606986161E+06      198      499        1         1
                  1       0.249000000000000E+05       0.101229811188959E+05       0.5000000E+00       0.100000000000000E+03       0.245723282312041E+06      198      498        1         1
                  1       0.248500000000000E+05       0.101229884223409E+05       0.5000000E+00       0.100000000000000E+03       0.247548041297732E+06      198      497        1         1
                  1       0.248000000000000E+05       0.101229955838961E+05       0.5000000E+00       0.100000000000000E+03       0.249372882087780E+06      198      496        1         1
                  1       0.247500000000000E+05       0.101230026070626E+05       0.5000000E+00       0.100000000000000E+03       0.251197802995622E+06      198      495        1         1
                  1       0.247000000000000E+05       0.101230094952330E+05       0.5000000E+00       0.100000000000000E+03       0.253022802334249E+06      198      494        1         1
                  1       0.246500000000000E+05       0.101230162516935E+05       0.5000000E+00       0.100000000000000E+03       0.254847878585635E+06      198      493        1         1
                  1       0.246000000000000E+05       0.101230228796289E+05       0.5000000E+00       0.100000000000000E+03       0.256673030231370E+06      198      492        1         1
                  1       0.245500000000000E+05       0.101230293821264E+05       0.5000000E+00       0.100000000000000E+03       0.258498255752667E+06      198      491        1         1
                  1       0.245000000000000E+05       0.101230357621794E+05       0.5000000E+00       0.100000000000000E+03       0.260323553630366E+06      198      490        1         1
                  1       0.244500000000000E+05       0.101230420226903E+05       0.5000000E+00       0.100000000000000E+03       0.262148922344949E+06      198      489        1         1
                  1       0.244000000000000E+05       0.101230481664755E+05       0.5000000E+00       0.100000000000000E+03       0.263974360546028E+06      198      488        1         1
                  1       0.243500000000000E+05       0.101230541962664E+05       0.5000000E+00       0.100000000000000E+03       0.265799866713407E+06      198      487        1         1
                  1       0.243000000000000E+05       0.101230601147143E+05       0.5000000E+00       0.100000000000000E+03       0.267625439665570E+06      198      486        1         1
                  1       0.242500000000000E+05       0.101230659243930E+05       0.5000000E+00       0.100000000000000E+03       0.269451078220745E+06      198      485        1         1
                  1       0.242000000000000E+05       0.101230716277999E+05       0.5000000E+00       0.100000000000000E+03       0.271276780688296E+06      198      484        1         1
                  1       0.241500000000000E+05       0.101230772273629E+05       0.5000000E+00       0.100000000000000E+03       0.273102546224965E+06      198      483        1         1
                  1       0.241000000000000E+05       0.101230827254372E+05       0.5000000E+00       0.100000000000000E+03       0.274928373309089E+06      198      482        1         1
                  1       0.240500000000000E+05       0.101230881243124E+05       0.5000000E+00       0.100000000000000E+03       0.276754260757831E+06      198      481        1         1
                  1       0.240000000000000E+05       0.101230934262138E+05       0.5000000E+00       0.100000000000000E+03       0.278580207557701E+06      198      480        1         1
                  1       0.239500000000000E+05       0.101230986333032E+05       0.5000000E+00       0.100000000000000E+03       0.280406212525421E+06      198      479        1         1
                  1       0.239000000000000E+05       0.101231037476824E+05       0.5000000E+00       0.100000000000000E+03       0.282232274477486E+06      198      478        1         1
                  1       0.238500000000000E+05       0.101231087713951E+05       0.5000000E+00       0.100000000000000E+03       0.284058392399779E+06      198      477        1         1
                  1       0.238000000000000E+05       0.101231137064280E+05       0.5000000E+00       0.100000000000000E+03       0.285884565108376E+06      198      476        1         1
                  1       0.237500000000000E+05       0.101231185547141E+05       0.5000000E+00       0.100000000000000E+03       0.287710791419139E+06      198      475        1         1
                  1       0.237000000000000E+05       0.101231233181346E+05       0.5000000E+00       0.100000000000000E+03       0.289537070656648E+06      198      474        1         1
                  1       0.236500000000000E+05       0.101231279985185E+05       0.5000000E+00       0.100000000000000E+03       0.291363401636407E+06      198      473        1         1
                  1       0.236000000000000E+05       0.101231325976466E+05       0.5000000E+00       0.100000000000000E+03       0.293189783343384E+06      198      472        1         1
                  1       0.235500000000000E+05       0.101231371172518E+05       0.5000000E+00       0.100000000000000E+03       0.295016214932045E+06      198      471        1         1