MODPATH_TIMESERIES_FILE 6 0                                                     
 1   0.000000000000000E+00
END HEADER
    0     1   0.000000000000000E+00          1     1   0.500000000000000E-02   0.500000000000000E+02   0.125000000000000E+02  1    1    1    1   0.1000000E-02   0.0000000E+00   0.5000000E+00
    0     1   0.000000000000000E+00          2     1   0.125000000000000E+02   0.500000000000000E+02   0.125000000000000E+02  1    1    1    3   0.5000000E+00   0.0000000E+00   0.5000000E+00
    0     1   0.000000000000000E+00          3     1   0.225000000000000E+02   0.500000000000000E+02   0.125000000000000E+02  1    1    1    5   0.5000000E+00   0.0000000E+00   0.5000000E+00
    0     1   0.000000000000000E+00          4     1   0.325000000000000E+02   0.500000000000000E+02   0.125000000000000E+02  1    1    1    7   0.5000000E+00   0.0000000E+00   0.5000000E+00
    0     1   0.000000000000000E+00          5     1   0.425000000000000E+02   0.500000000000000E+02   0.125000000000000E+02  1    1    1    9   0.5000000E+00   0.0000000E+00   0.5000000E+00
    0     1   0.000000000000000E+00          1     1   0.500000000000000E-02   0.500000000000000E+02   0.125000000000000E+02  1    1    1    1   0.1000000E-02   0.0000000E+00   0.5000000E+00
    0     1   0.000000000000000E+00          2     1   0.125000000000000E+02   0.500000000000000E+02   0.125000000000000E+02  1    1    1    3   0.5000000E+00   0.0000000E+00   0.5000000E+00
    0     1   0.000000000000000E+00          3     1   0.225000000000000E+02   0.500000000000000E+02   0.125000000000000E+02  1    1    1    5   0.5000000E+00   0.0000000E+00   0.5000000E+00
    0     1   0.000000000000000E+00          4     1   0.325000000000000E+02   0.500000000000000E+02   0.125000000000000E+02  1    1    1    7   0.5000000E+00   0.0000000E+00   0.5000000E+00
    0     1   0.000000000000000E+00          5     1   0.425000000000000E+02   0.500000000000000E+02   0.125000000000000E+02  1    1    1    9   0.5000000E+00   0.0000000E+00   0.5000000E+00
    2     3   0.218000000000000E+01          1     1   0.101690851844368E-01   0.142873437691135E+02   0.125000000000000E+02  1    1    9    1   0.2033817E-02   0.8574688E+00   0.5000000E+00
    2     3   0.218000000000000E+01          2     1   0.276795473914635E+02   0.995603672519248E+01   0.125000000000000E+02  1    1   10    6   0.5359095E+00   0.9912073E+00   0.5000000E+00
    2     3   0.218000000000000E+01          3     1   0.693638660673291E+02   0.147125808400456E+02   0.125000000000000E+02  1    1    9   14   0.8727732E+00   0.9425162E+00   0.5000000E+00
    3     5   0.436000000000000E+01          1     1   0.473579097871768E-01   0.288802428193532E+01   0.125000000000000E+02  1    1   11    1   0.9471582E-02   0.5776049E+00   0.5000000E+00
    4     7   0.654000000000000E+01          1     1   0.240336281873211E+00   0.569080924199460E+00   0.125000000000000E+02  1    1   11    1   0.4806726E-01   0.1138162E+00   0.5000000E+00
    5     9   0.872000000000000E+01          1     1   0.121968069630218E+01   0.112136556577250E+00   0.125000000000000E+02  1    1   11    1   0.2439361E+00   0.2242731E-01   0.5000000E+00
    6    11   0.109000000000000E+02          1     1   0.619619875373417E+01   0.218669721699462E-01   0.125000000000000E+02  1    1   11    2   0.2392398E+00   0.4373394E-02   0.5000000E+00
    7    14   0.130800000000000E+02          1     1   0.399570048493608E+02   0.178068763817375E-02   0.125000000000000E+02  1    1   11    8   0.9914010E+00   0.3561375E-03   0.5000000E+00
    8    16   0.152600000000000E+02          1     1   0.943947096238495E+02   0.175299664520721E-01   0.125000000000000E+02  1    1   11   19   0.8789419E+00   0.3505993E-02   0.5000000E+00
    9    18   0.174400000000000E+02          1     1   0.101619411819537E+03   0.586130088631047E-01   0.125000000000000E+02  1    1   11   21   0.3238824E+00   0.1172260E-01   0.5000000E+00
   10    20   0.196200000000000E+02          1     1   0.103898281471544E+03   0.179852149043624E+00   0.125000000000000E+02  1    1   11   21   0.7796563E+00   0.3597043E-01   0.5000000E+00
