
MODPATH - Version 6.0.01  August 24, 2012                 
U.S. GEOLOGICAL SURVEY PARTICLE TRACKING MODEL FOR MODFLOW

Simulation File: test_case_2.mpsim                                                                                                                                                                                       
 ## MPSIM for Modpath, generated by Flopy.
 ##
  
--------------------------------------------
Allocating and reading data for grid  1
--------------------------------------------

 OPENING test_case_2.mpbas
 FILE TYPE:MPBAS   UNIT   86   STATUS:OLD    
 FORMAT:FORMATTED              ACCESS:SEQUENTIAL          

 OPENING test_case_2.dis
 FILE TYPE:DIS   UNIT   11   STATUS:OLD    
 FORMAT:FORMATTED              ACCESS:SEQUENTIAL          

 OPENING test_case_2.hds
 FILE TYPE:HEAD   UNIT   88   STATUS:OLD    
 FORMAT:UNFORMATTED            ACCESS:STREAM              

 OPENING test_case_2.cbc
 FILE TYPE:BUDGET   UNIT   89   STATUS:OLD    
 FORMAT:UNFORMATTED            ACCESS:STREAM              

 DISCRETIZATION INPUT DATA READ FROM UNIT   11
 # DIS package for  MODFLOW-2000, generated by Flopy.
    1 LAYERS        11 ROWS        21 COLUMNS
   30 STRESS PERIOD(S) IN SIMULATION
 MODEL TIME UNIT IS DAYS
 MODEL LENGTH UNIT IS FEET
  Confining bed flag for each layer:
   0

                     DELR =   5.00000    

                     DELC =   5.00000    



           TOP ELEVATION OF LAYER 1
 READING ON UNIT   11 WITH FORMAT: (21E15.6)           



             MODEL LAYER BOTTOM EL. FOR LAYER   1
 READING ON UNIT   11 WITH FORMAT: (21E15.6)           


 STRESS PERIOD     LENGTH       TIME STEPS     MULTIPLIER FOR DELT    SS FLAG
 ----------------------------------------------------------------------------
        1         1.000000          1                    1.000         SS
        2         1.000000          1                    1.000         SS
        3         1.000000          1                    1.000         SS
        4         1.000000          1                    1.000         SS
        5         1.000000          1                    1.000         SS
        6         1.000000          1                    1.000         SS
        7         1.000000          1                    1.000         SS
        8         1.000000          1                    1.000         SS
        9         1.000000          1                    1.000         SS
       10         1.000000          1                    1.000         SS
       11         1.000000          1                    1.000         SS
       12         1.000000          1                    1.000         SS
       13         1.000000          1                    1.000         SS
       14         1.000000          1                    1.000         SS
       15         1.000000          1                    1.000         SS
       16         1.000000          1                    1.000         SS
       17         1.000000          1                    1.000         SS
       18         1.000000          1                    1.000         SS
       19         1.000000          1                    1.000         SS
       20         1.000000          1                    1.000         SS
       21         1.000000          1                    1.000         SS
       22         1.000000          1                    1.000         SS
       23         1.000000          1                    1.000         SS
       24         1.000000          1                    1.000         SS
       25         1.000000          1                    1.000         SS
       26         1.000000          1                    1.000         SS
       27         1.000000          1                    1.000         SS
       28         1.000000          1                    1.000         SS
       29         1.000000          1                    1.000         SS
       30         1.000000          1                    1.000         SS

 STEADY-STATE SIMULATION
 
 ## MPBAS for Modpath, generated by Flopy.                                       
 ##                                                                              

 AQUIFER HEAD IS SET TO *********** AT ALL NO-FLOW NODES (IBOUND=0).
 AQUIFER HEAD IS SET TO -8888.0     AT ALL DRY NODES.
 
 
 LAYER TYPE(LAYTYP)
  0



                     BOUNDARY ARRAY FOR LAYER   1
 READING ON UNIT   86 WITH FORMAT:             (21I10) 

                 POROSITY =  0.300000     FOR LAYER   1
 
 CHECKING THE HEAD FILE FOR GRID   1
 Single Precision Binary Head file
 READ HEAD FOR PERIOD     1 STEP     1  PERTIM =   1.000000E+00  TOTIM =   1.000000E+00
 READ HEAD FOR PERIOD     2 STEP     1  PERTIM =   1.000000E+00  TOTIM =   2.000000E+00
 READ HEAD FOR PERIOD     3 STEP     1  PERTIM =   1.000000E+00  TOTIM =   3.000000E+00
 READ HEAD FOR PERIOD     4 STEP     1  PERTIM =   1.000000E+00  TOTIM =   4.000000E+00
 READ HEAD FOR PERIOD     5 STEP     1  PERTIM =   1.000000E+00  TOTIM =   5.000000E+00
 READ HEAD FOR PERIOD     6 STEP     1  PERTIM =   1.000000E+00  TOTIM =   6.000000E+00
 READ HEAD FOR PERIOD     7 STEP     1  PERTIM =   1.000000E+00  TOTIM =   7.000000E+00
 READ HEAD FOR PERIOD     8 STEP     1  PERTIM =   1.000000E+00  TOTIM =   8.000000E+00
 READ HEAD FOR PERIOD     9 STEP     1  PERTIM =   1.000000E+00  TOTIM =   9.000000E+00
 READ HEAD FOR PERIOD    10 STEP     1  PERTIM =   1.000000E+00  TOTIM =   1.000000E+01
 READ HEAD FOR PERIOD    11 STEP     1  PERTIM =   1.000000E+00  TOTIM =   1.100000E+01
 READ HEAD FOR PERIOD    12 STEP     1  PERTIM =   1.000000E+00  TOTIM =   1.200000E+01
 READ HEAD FOR PERIOD    13 STEP     1  PERTIM =   1.000000E+00  TOTIM =   1.300000E+01
 READ HEAD FOR PERIOD    14 STEP     1  PERTIM =   1.000000E+00  TOTIM =   1.400000E+01
 READ HEAD FOR PERIOD    15 STEP     1  PERTIM =   1.000000E+00  TOTIM =   1.500000E+01
 READ HEAD FOR PERIOD    16 STEP     1  PERTIM =   1.000000E+00  TOTIM =   1.600000E+01
 READ HEAD FOR PERIOD    17 STEP     1  PERTIM =   1.000000E+00  TOTIM =   1.700000E+01
 READ HEAD FOR PERIOD    18 STEP     1  PERTIM =   1.000000E+00  TOTIM =   1.800000E+01
 READ HEAD FOR PERIOD    19 STEP     1  PERTIM =   1.000000E+00  TOTIM =   1.900000E+01
 READ HEAD FOR PERIOD    20 STEP     1  PERTIM =   1.000000E+00  TOTIM =   2.000000E+01
 READ HEAD FOR PERIOD    21 STEP     1  PERTIM =   1.000000E+00  TOTIM =   2.100000E+01
 READ HEAD FOR PERIOD    22 STEP     1  PERTIM =   1.000000E+00  TOTIM =   2.200000E+01
 READ HEAD FOR PERIOD    23 STEP     1  PERTIM =   1.000000E+00  TOTIM =   2.300000E+01
 READ HEAD FOR PERIOD    24 STEP     1  PERTIM =   1.000000E+00  TOTIM =   2.400000E+01
 READ HEAD FOR PERIOD    25 STEP     1  PERTIM =   1.000000E+00  TOTIM =   2.500000E+01
 READ HEAD FOR PERIOD    26 STEP     1  PERTIM =   1.000000E+00  TOTIM =   2.600000E+01
 READ HEAD FOR PERIOD    27 STEP     1  PERTIM =   1.000000E+00  TOTIM =   2.700000E+01
 READ HEAD FOR PERIOD    28 STEP     1  PERTIM =   1.000000E+00  TOTIM =   2.800000E+01
 READ HEAD FOR PERIOD    29 STEP     1  PERTIM =   1.000000E+00  TOTIM =   2.900000E+01
 READ HEAD FOR PERIOD    30 STEP     1  PERTIM =   1.000000E+00  TOTIM =   3.000000E+01
 THE HEAD FILE FOR GRID   1 IS COMPLETE.
 
 CHECKING AND INDEXING BUDGET FILE FOR GRID   1
 Index position =          1
 READ FLOW PACKAGE BUDGET DATA FOR STRESS PERIOD    1 , TIME STEP    1 ...
 Single Precision Binary Budget file
 Reading    CONSTANT HEAD for Period    1   Time Step    1
 Reading FLOW RIGHT FACE  for Period    1   Time Step    1
 Reading FLOW FRONT FACE  for Period    1   Time Step    1
   FLOW RATES BETWEEN CELLS HAVE BEEN READ
 Index position =       2169
 READ FLOW PACKAGE BUDGET DATA FOR STRESS PERIOD    2 , TIME STEP    1 ...
 Reading    CONSTANT HEAD for Period    2   Time Step    1
 Reading FLOW RIGHT FACE  for Period    2   Time Step    1
 Reading FLOW FRONT FACE  for Period    2   Time Step    1
   FLOW RATES BETWEEN CELLS HAVE BEEN READ
 Index position =       4337
 READ FLOW PACKAGE BUDGET DATA FOR STRESS PERIOD    3 , TIME STEP    1 ...
 Reading    CONSTANT HEAD for Period    3   Time Step    1
 Reading FLOW RIGHT FACE  for Period    3   Time Step    1
 Reading FLOW FRONT FACE  for Period    3   Time Step    1
   FLOW RATES BETWEEN CELLS HAVE BEEN READ
 Index position =       6505
 READ FLOW PACKAGE BUDGET DATA FOR STRESS PERIOD    4 , TIME STEP    1 ...
 Reading    CONSTANT HEAD for Period    4   Time Step    1
 Reading FLOW RIGHT FACE  for Period    4   Time Step    1
 Reading FLOW FRONT FACE  for Period    4   Time Step    1
   FLOW RATES BETWEEN CELLS HAVE BEEN READ
 Index position =       8673
 READ FLOW PACKAGE BUDGET DATA FOR STRESS PERIOD    5 , TIME STEP    1 ...
 Reading    CONSTANT HEAD for Period    5   Time Step    1
 Reading FLOW RIGHT FACE  for Period    5   Time Step    1
 Reading FLOW FRONT FACE  for Period    5   Time Step    1
   FLOW RATES BETWEEN CELLS HAVE BEEN READ
 Index position =      10841
 READ FLOW PACKAGE BUDGET DATA FOR STRESS PERIOD    6 , TIME STEP    1 ...
 Reading    CONSTANT HEAD for Period    6   Time Step    1
 Reading FLOW RIGHT FACE  for Period    6   Time Step    1
 Reading FLOW FRONT FACE  for Period    6   Time Step    1
   FLOW RATES BETWEEN CELLS HAVE BEEN READ
 Index position =      13009
 READ FLOW PACKAGE BUDGET DATA FOR STRESS PERIOD    7 , TIME STEP    1 ...
 Reading    CONSTANT HEAD for Period    7   Time Step    1
 Reading FLOW RIGHT FACE  for Period    7   Time Step    1
 Reading FLOW FRONT FACE  for Period    7   Time Step    1
   FLOW RATES BETWEEN CELLS HAVE BEEN READ
 Index position =      15177
 READ FLOW PACKAGE BUDGET DATA FOR STRESS PERIOD    8 , TIME STEP    1 ...
 Reading    CONSTANT HEAD for Period    8   Time Step    1
 Reading FLOW RIGHT FACE  for Period    8   Time Step    1
 Reading FLOW FRONT FACE  for Period    8   Time Step    1
   FLOW RATES BETWEEN CELLS HAVE BEEN READ
 Index position =      17345
 READ FLOW PACKAGE BUDGET DATA FOR STRESS PERIOD    9 , TIME STEP    1 ...
 Reading    CONSTANT HEAD for Period    9   Time Step    1
 Reading FLOW RIGHT FACE  for Period    9   Time Step    1
 Reading FLOW FRONT FACE  for Period    9   Time Step    1
   FLOW RATES BETWEEN CELLS HAVE BEEN READ
 Index position =      19513
 READ FLOW PACKAGE BUDGET DATA FOR STRESS PERIOD   10 , TIME STEP    1 ...
 Reading    CONSTANT HEAD for Period   10   Time Step    1
 Reading FLOW RIGHT FACE  for Period   10   Time Step    1
 Reading FLOW FRONT FACE  for Period   10   Time Step    1
   FLOW RATES BETWEEN CELLS HAVE BEEN READ
 Index position =      21681
 READ FLOW PACKAGE BUDGET DATA FOR STRESS PERIOD   11 , TIME STEP    1 ...
 Reading    CONSTANT HEAD for Period   11   Time Step    1
 Reading FLOW RIGHT FACE  for Period   11   Time Step    1
 Reading FLOW FRONT FACE  for Period   11   Time Step    1
   FLOW RATES BETWEEN CELLS HAVE BEEN READ
 Index position =      23849
 READ FLOW PACKAGE BUDGET DATA FOR STRESS PERIOD   12 , TIME STEP    1 ...
 Reading    CONSTANT HEAD for Period   12   Time Step    1
 Reading FLOW RIGHT FACE  for Period   12   Time Step    1
 Reading FLOW FRONT FACE  for Period   12   Time Step    1
   FLOW RATES BETWEEN CELLS HAVE BEEN READ
 Index position =      26017
 READ FLOW PACKAGE BUDGET DATA FOR STRESS PERIOD   13 , TIME STEP    1 ...
 Reading    CONSTANT HEAD for Period   13   Time Step    1
 Reading FLOW RIGHT FACE  for Period   13   Time Step    1
 Reading FLOW FRONT FACE  for Period   13   Time Step    1
   FLOW RATES BETWEEN CELLS HAVE BEEN READ
 Index position =      28185
 READ FLOW PACKAGE BUDGET DATA FOR STRESS PERIOD   14 , TIME STEP    1 ...
 Reading    CONSTANT HEAD for Period   14   Time Step    1
 Reading FLOW RIGHT FACE  for Period   14   Time Step    1
 Reading FLOW FRONT FACE  for Period   14   Time Step    1
   FLOW RATES BETWEEN CELLS HAVE BEEN READ
 Index position =      30353
 READ FLOW PACKAGE BUDGET DATA FOR STRESS PERIOD   15 , TIME STEP    1 ...
 Reading    CONSTANT HEAD for Period   15   Time Step    1
 Reading FLOW RIGHT FACE  for Period   15   Time Step    1
 Reading FLOW FRONT FACE  for Period   15   Time Step    1
   FLOW RATES BETWEEN CELLS HAVE BEEN READ
 Index position =      32521
 READ FLOW PACKAGE BUDGET DATA FOR STRESS PERIOD   16 , TIME STEP    1 ...
 Reading    CONSTANT HEAD for Period   16   Time Step    1
 Reading FLOW RIGHT FACE  for Period   16   Time Step    1
 Reading FLOW FRONT FACE  for Period   16   Time Step    1
   FLOW RATES BETWEEN CELLS HAVE BEEN READ
 Index position =      34689
 READ FLOW PACKAGE BUDGET DATA FOR STRESS PERIOD   17 , TIME STEP    1 ...
 Reading    CONSTANT HEAD for Period   17   Time Step    1
 Reading FLOW RIGHT FACE  for Period   17   Time Step    1
 Reading FLOW FRONT FACE  for Period   17   Time Step    1
   FLOW RATES BETWEEN CELLS HAVE BEEN READ
 Index position =      36857
 READ FLOW PACKAGE BUDGET DATA FOR STRESS PERIOD   18 , TIME STEP    1 ...
 Reading    CONSTANT HEAD for Period   18   Time Step    1
 Reading FLOW RIGHT FACE  for Period   18   Time Step    1
 Reading FLOW FRONT FACE  for Period   18   Time Step    1
   FLOW RATES BETWEEN CELLS HAVE BEEN READ
 Index position =      39025
 READ FLOW PACKAGE BUDGET DATA FOR STRESS PERIOD   19 , TIME STEP    1 ...
 Reading    CONSTANT HEAD for Period   19   Time Step    1
 Reading FLOW RIGHT FACE  for Period   19   Time Step    1
 Reading FLOW FRONT FACE  for Period   19   Time Step    1
   FLOW RATES BETWEEN CELLS HAVE BEEN READ
 Index position =      41193
 READ FLOW PACKAGE BUDGET DATA FOR STRESS PERIOD   20 , TIME STEP    1 ...
 Reading    CONSTANT HEAD for Period   20   Time Step    1
 Reading FLOW RIGHT FACE  for Period   20   Time Step    1
 Reading FLOW FRONT FACE  for Period   20   Time Step    1
   FLOW RATES BETWEEN CELLS HAVE BEEN READ
 Index position =      43361
 READ FLOW PACKAGE BUDGET DATA FOR STRESS PERIOD   21 , TIME STEP    1 ...
 Reading    CONSTANT HEAD for Period   21   Time Step    1
 Reading FLOW RIGHT FACE  for Period   21   Time Step    1
 Reading FLOW FRONT FACE  for Period   21   Time Step    1
   FLOW RATES BETWEEN CELLS HAVE BEEN READ
 Index position =      45529
 READ FLOW PACKAGE BUDGET DATA FOR STRESS PERIOD   22 , TIME STEP    1 ...
 Reading    CONSTANT HEAD for Period   22   Time Step    1
 Reading FLOW RIGHT FACE  for Period   22   Time Step    1
 Reading FLOW FRONT FACE  for Period   22   Time Step    1
   FLOW RATES BETWEEN CELLS HAVE BEEN READ
 Index position =      47697
 READ FLOW PACKAGE BUDGET DATA FOR STRESS PERIOD   23 , TIME STEP    1 ...
 Reading    CONSTANT HEAD for Period   23   Time Step    1
 Reading FLOW RIGHT FACE  for Period   23   Time Step    1
 Reading FLOW FRONT FACE  for Period   23   Time Step    1
   FLOW RATES BETWEEN CELLS HAVE BEEN READ
 Index position =      49865
 READ FLOW PACKAGE BUDGET DATA FOR STRESS PERIOD   24 , TIME STEP    1 ...
 Reading    CONSTANT HEAD for Period   24   Time Step    1
 Reading FLOW RIGHT FACE  for Period   24   Time Step    1
 Reading FLOW FRONT FACE  for Period   24   Time Step    1
   FLOW RATES BETWEEN CELLS HAVE BEEN READ
 Index position =      52033
 READ FLOW PACKAGE BUDGET DATA FOR STRESS PERIOD   25 , TIME STEP    1 ...
 Reading    CONSTANT HEAD for Period   25   Time Step    1
 Reading FLOW RIGHT FACE  for Period   25   Time Step    1
 Reading FLOW FRONT FACE  for Period   25   Time Step    1
   FLOW RATES BETWEEN CELLS HAVE BEEN READ
 Index position =      54201
 READ FLOW PACKAGE BUDGET DATA FOR STRESS PERIOD   26 , TIME STEP    1 ...
 Reading    CONSTANT HEAD for Period   26   Time Step    1
 Reading FLOW RIGHT FACE  for Period   26   Time Step    1
 Reading FLOW FRONT FACE  for Period   26   Time Step    1
   FLOW RATES BETWEEN CELLS HAVE BEEN READ
 Index position =      56369
 READ FLOW PACKAGE BUDGET DATA FOR STRESS PERIOD   27 , TIME STEP    1 ...
 Reading    CONSTANT HEAD for Period   27   Time Step    1
 Reading FLOW RIGHT FACE  for Period   27   Time Step    1
 Reading FLOW FRONT FACE  for Period   27   Time Step    1
   FLOW RATES BETWEEN CELLS HAVE BEEN READ
 Index position =      58537
 READ FLOW PACKAGE BUDGET DATA FOR STRESS PERIOD   28 , TIME STEP    1 ...
 Reading    CONSTANT HEAD for Period   28   Time Step    1
 Reading FLOW RIGHT FACE  for Period   28   Time Step    1
 Reading FLOW FRONT FACE  for Period   28   Time Step    1
   FLOW RATES BETWEEN CELLS HAVE BEEN READ
 Index position =      60705
 READ FLOW PACKAGE BUDGET DATA FOR STRESS PERIOD   29 , TIME STEP    1 ...
 Reading    CONSTANT HEAD for Period   29   Time Step    1
 Reading FLOW RIGHT FACE  for Period   29   Time Step    1
 Reading FLOW FRONT FACE  for Period   29   Time Step    1
   FLOW RATES BETWEEN CELLS HAVE BEEN READ
 Index position =      62873
 READ FLOW PACKAGE BUDGET DATA FOR STRESS PERIOD   30 , TIME STEP    1 ...
 Reading    CONSTANT HEAD for Period   30   Time Step    1
 Reading FLOW RIGHT FACE  for Period   30   Time Step    1
 Reading FLOW FRONT FACE  for Period   30   Time Step    1
   FLOW RATES BETWEEN CELLS HAVE BEEN READ
 THE BUDGET INDEX FOR GRID   1 WAS SUCCESSFULLY CREATED.
 
PATHLINE ANALYSIS (ISIMTYPE = 2)
FORWARD TRACKING (ITRACKDIR =  1)
STOP PARTICLES WHEN THEY ENTER WEAK SINK CELLS. (ISINK = 2)
LET PARTICLES PASS THROUGH WEAK SOURCE CELLS FOR BACKTRACKING SIMULATIONS (ISOURCE = 1)
DO NOT SAVE ADVECTIVE OBSERVATIONS FOR TIME SERIES SIMULATIONS (IADVOBS =  1)
 
PARTICLE OUTPUT FILES:
ENDPOINT FILE:  test_case_2.mpend                                                                                                                                                                                       
PATHLINE FILE:  test_case_2.mppth                                                                                                                                                                                       
 
REFERENCE TIME CALCULATED FOR: KPER =     1  KSTP =     1  RELATIVE POSITION WITHIN TIME STEP = 0.0000000
COMPUTED REFERENCE TIME =   0.0000000E+00
EXTEND INITIAL OR FINAL STEADY-STATE TIMESTEP AND CONTINUE TRACKING (ISTOPT =  2)
 Particle starting locations will be read from file:                                                                                                                                                     starting_locs_ex2.loc                                                                                                                                                                                   
   Starting locations file format option (ISLFOPT) =                                                                                                                                                        1
 
TOTAL NUMBER OF PARTICLES FOR ALL GROUPS =          5
 
    10Time points will be read from a list.
    0.00000E+00    0.21800E+01    0.43600E+01    0.65400E+01    0.87200E+01    0.10900E+02    0.13080E+02    0.15260E+02    0.17440E+02    0.19620E+02
 
DO NOT PERFORM BUDGET CHECKS (IBDOPT =  1)
 
THE ZONE VALUE FOR ALL CELLS = 1
 
NO RETARDATION. FACTOR = 1 FOR ALL CELLS
 
 
 Run particle tracking simulation ...
 
 ----------------------------------------------------------------------------------------------
Processing Time Step     1 Period     1.  Time =  1.00000E+00                                                                         (Cumulative step =      1)
 ----------------------------------------------------------------------------------------------
 PROCESSING HEAD AND BUDGET DATA FOR GRID   1
 READ HEAD FOR PERIOD     1 STEP     1  PERTIM =   1.000000E+00  TOTIM =   1.000000E+00
 UPDATE IBOUND FOR NO-FLOW AND DRY CELLS.
 PROCESS FLOW PACKAGE BUDGET DATA FOR STRESS PERIOD    1 , TIME STEP    1 ...
 Reading    CONSTANT HEAD for Period    1   Time Step    1
 Reading FLOW RIGHT FACE  for Period    1   Time Step    1
 Reading FLOW FRONT FACE  for Period    1   Time Step    1
 
 ----------------------------------------------------------------------------------------------
Processing Time Step     1 Period     2.  Time =  2.00000E+00                                                                         (Cumulative step =      2)
 ----------------------------------------------------------------------------------------------
 PROCESSING HEAD AND BUDGET DATA FOR GRID   1
 READ HEAD FOR PERIOD     2 STEP     1  PERTIM =   1.000000E+00  TOTIM =   2.000000E+00
 UPDATE IBOUND FOR NO-FLOW AND DRY CELLS.
 PROCESS FLOW PACKAGE BUDGET DATA FOR STRESS PERIOD    2 , TIME STEP    1 ...
 Reading    CONSTANT HEAD for Period    2   Time Step    1
 Reading FLOW RIGHT FACE  for Period    2   Time Step    1
 Reading FLOW FRONT FACE  for Period    2   Time Step    1
 
 ----------------------------------------------------------------------------------------------
Processing Time Step     1 Period     3.  Time =  3.00000E+00                                                                         (Cumulative step =      3)
 ----------------------------------------------------------------------------------------------
 PROCESSING HEAD AND BUDGET DATA FOR GRID   1
 READ HEAD FOR PERIOD     3 STEP     1  PERTIM =   1.000000E+00  TOTIM =   3.000000E+00
 UPDATE IBOUND FOR NO-FLOW AND DRY CELLS.
 PROCESS FLOW PACKAGE BUDGET DATA FOR STRESS PERIOD    3 , TIME STEP    1 ...
 Reading    CONSTANT HEAD for Period    3   Time Step    1
 Reading FLOW RIGHT FACE  for Period    3   Time Step    1
 Reading FLOW FRONT FACE  for Period    3   Time Step    1
 
 ----------------------------------------------------------------------------------------------
Processing Time Step     1 Period     4.  Time =  4.00000E+00                                                                         (Cumulative step =      4)
 ----------------------------------------------------------------------------------------------
 PROCESSING HEAD AND BUDGET DATA FOR GRID   1
 READ HEAD FOR PERIOD     4 STEP     1  PERTIM =   1.000000E+00  TOTIM =   4.000000E+00
 UPDATE IBOUND FOR NO-FLOW AND DRY CELLS.
 PROCESS FLOW PACKAGE BUDGET DATA FOR STRESS PERIOD    4 , TIME STEP    1 ...
 Reading    CONSTANT HEAD for Period    4   Time Step    1
 Reading FLOW RIGHT FACE  for Period    4   Time Step    1
 Reading FLOW FRONT FACE  for Period    4   Time Step    1
 
 ----------------------------------------------------------------------------------------------
Processing Time Step     1 Period     5.  Time =  5.00000E+00                                                                         (Cumulative step =      5)
 ----------------------------------------------------------------------------------------------
 PROCESSING HEAD AND BUDGET DATA FOR GRID   1
 READ HEAD FOR PERIOD     5 STEP     1  PERTIM =   1.000000E+00  TOTIM =   5.000000E+00
 UPDATE IBOUND FOR NO-FLOW AND DRY CELLS.
 PROCESS FLOW PACKAGE BUDGET DATA FOR STRESS PERIOD    5 , TIME STEP    1 ...
 Reading    CONSTANT HEAD for Period    5   Time Step    1
 Reading FLOW RIGHT FACE  for Period    5   Time Step    1
 Reading FLOW FRONT FACE  for Period    5   Time Step    1
 
 ----------------------------------------------------------------------------------------------
Processing Time Step     1 Period     6.  Time =  6.00000E+00                                                                         (Cumulative step =      6)
 ----------------------------------------------------------------------------------------------
 PROCESSING HEAD AND BUDGET DATA FOR GRID   1
 READ HEAD FOR PERIOD     6 STEP     1  PERTIM =   1.000000E+00  TOTIM =   6.000000E+00
 UPDATE IBOUND FOR NO-FLOW AND DRY CELLS.
 PROCESS FLOW PACKAGE BUDGET DATA FOR STRESS PERIOD    6 , TIME STEP    1 ...
 Reading    CONSTANT HEAD for Period    6   Time Step    1
 Reading FLOW RIGHT FACE  for Period    6   Time Step    1
 Reading FLOW FRONT FACE  for Period    6   Time Step    1
 
 ----------------------------------------------------------------------------------------------
Processing Time Step     1 Period     7.  Time =  7.00000E+00                                                                         (Cumulative step =      7)
 ----------------------------------------------------------------------------------------------
 PROCESSING HEAD AND BUDGET DATA FOR GRID   1
 READ HEAD FOR PERIOD     7 STEP     1  PERTIM =   1.000000E+00  TOTIM =   7.000000E+00
 UPDATE IBOUND FOR NO-FLOW AND DRY CELLS.
 PROCESS FLOW PACKAGE BUDGET DATA FOR STRESS PERIOD    7 , TIME STEP    1 ...
 Reading    CONSTANT HEAD for Period    7   Time Step    1
 Reading FLOW RIGHT FACE  for Period    7   Time Step    1
 Reading FLOW FRONT FACE  for Period    7   Time Step    1
 
 ----------------------------------------------------------------------------------------------
Processing Time Step     1 Period     8.  Time =  8.00000E+00                                                                         (Cumulative step =      8)
 ----------------------------------------------------------------------------------------------
 PROCESSING HEAD AND BUDGET DATA FOR GRID   1
 READ HEAD FOR PERIOD     8 STEP     1  PERTIM =   1.000000E+00  TOTIM =   8.000000E+00
 UPDATE IBOUND FOR NO-FLOW AND DRY CELLS.
 PROCESS FLOW PACKAGE BUDGET DATA FOR STRESS PERIOD    8 , TIME STEP    1 ...
 Reading    CONSTANT HEAD for Period    8   Time Step    1
 Reading FLOW RIGHT FACE  for Period    8   Time Step    1
 Reading FLOW FRONT FACE  for Period    8   Time Step    1
 
 ----------------------------------------------------------------------------------------------
Processing Time Step     1 Period     9.  Time =  9.00000E+00                                                                         (Cumulative step =      9)
 ----------------------------------------------------------------------------------------------
 PROCESSING HEAD AND BUDGET DATA FOR GRID   1
 READ HEAD FOR PERIOD     9 STEP     1  PERTIM =   1.000000E+00  TOTIM =   9.000000E+00
 UPDATE IBOUND FOR NO-FLOW AND DRY CELLS.
 PROCESS FLOW PACKAGE BUDGET DATA FOR STRESS PERIOD    9 , TIME STEP    1 ...
 Reading    CONSTANT HEAD for Period    9   Time Step    1
 Reading FLOW RIGHT FACE  for Period    9   Time Step    1
 Reading FLOW FRONT FACE  for Period    9   Time Step    1
 
 ----------------------------------------------------------------------------------------------
Processing Time Step     1 Period    10.  Time =  1.00000E+01                                                                         (Cumulative step =     10)
 ----------------------------------------------------------------------------------------------
 PROCESSING HEAD AND BUDGET DATA FOR GRID   1
 READ HEAD FOR PERIOD    10 STEP     1  PERTIM =   1.000000E+00  TOTIM =   1.000000E+01
 UPDATE IBOUND FOR NO-FLOW AND DRY CELLS.
 PROCESS FLOW PACKAGE BUDGET DATA FOR STRESS PERIOD   10 , TIME STEP    1 ...
 Reading    CONSTANT HEAD for Period   10   Time Step    1
 Reading FLOW RIGHT FACE  for Period   10   Time Step    1
 Reading FLOW FRONT FACE  for Period   10   Time Step    1
 
 ----------------------------------------------------------------------------------------------
Processing Time Step     1 Period    11.  Time =  1.10000E+01                                                                         (Cumulative step =     11)
 ----------------------------------------------------------------------------------------------
 PROCESSING HEAD AND BUDGET DATA FOR GRID   1
 READ HEAD FOR PERIOD    11 STEP     1  PERTIM =   1.000000E+00  TOTIM =   1.100000E+01
 UPDATE IBOUND FOR NO-FLOW AND DRY CELLS.
 PROCESS FLOW PACKAGE BUDGET DATA FOR STRESS PERIOD   11 , TIME STEP    1 ...
 Reading    CONSTANT HEAD for Period   11   Time Step    1
 Reading FLOW RIGHT FACE  for Period   11   Time Step    1
 Reading FLOW FRONT FACE  for Period   11   Time Step    1
 
 ----------------------------------------------------------------------------------------------
Processing Time Step     1 Period    12.  Time =  1.20000E+01                                                                         (Cumulative step =     12)
 ----------------------------------------------------------------------------------------------
 PROCESSING HEAD AND BUDGET DATA FOR GRID   1
 READ HEAD FOR PERIOD    12 STEP     1  PERTIM =   1.000000E+00  TOTIM =   1.200000E+01
 UPDATE IBOUND FOR NO-FLOW AND DRY CELLS.
 PROCESS FLOW PACKAGE BUDGET DATA FOR STRESS PERIOD   12 , TIME STEP    1 ...
 Reading    CONSTANT HEAD for Period   12   Time Step    1
 Reading FLOW RIGHT FACE  for Period   12   Time Step    1
 Reading FLOW FRONT FACE  for Period   12   Time Step    1
 
 ----------------------------------------------------------------------------------------------
Processing Time Step     1 Period    13.  Time =  1.30000E+01                                                                         (Cumulative step =     13)
 ----------------------------------------------------------------------------------------------
 PROCESSING HEAD AND BUDGET DATA FOR GRID   1
 READ HEAD FOR PERIOD    13 STEP     1  PERTIM =   1.000000E+00  TOTIM =   1.300000E+01
 UPDATE IBOUND FOR NO-FLOW AND DRY CELLS.
 PROCESS FLOW PACKAGE BUDGET DATA FOR STRESS PERIOD   13 , TIME STEP    1 ...
 Reading    CONSTANT HEAD for Period   13   Time Step    1
 Reading FLOW RIGHT FACE  for Period   13   Time Step    1
 Reading FLOW FRONT FACE  for Period   13   Time Step    1
 
 ----------------------------------------------------------------------------------------------
Processing Time Step     1 Period    14.  Time =  1.40000E+01                                                                         (Cumulative step =     14)
 ----------------------------------------------------------------------------------------------
 PROCESSING HEAD AND BUDGET DATA FOR GRID   1
 READ HEAD FOR PERIOD    14 STEP     1  PERTIM =   1.000000E+00  TOTIM =   1.400000E+01
 UPDATE IBOUND FOR NO-FLOW AND DRY CELLS.
 PROCESS FLOW PACKAGE BUDGET DATA FOR STRESS PERIOD   14 , TIME STEP    1 ...