# LPF package for  MODFLOW-2000, generated by Flopy.
        53    -1E+30         0  
         0
         0
   1.000000E+00
         0
         0
INTERNAL               1  (21E15.6) -1 #hk layer 1                    
   4.500000E+03   4.500000E+03   4.500000E+03   4.500000E+03   4.500000E+03   4.500000E+03   4.500000E+03   4.500000E+03   4.500000E+03   4.500000E+03   4.500000E+01   4.500000E+01   4.500000E+01   4.500000E+01   4.500000E+01   4.500000E+01   4.500000E+01   4.500000E+01   4.500000E+01   4.500000E+01   4.500000E+01
   4.500000E+01   4.500000E+01   4.500000E+01   4.500000E+01   4.500000E+01   4.500000E+01   4.500000E+01   4.500000E+01   4.500000E+01   4.500000E+01   4.500000E+01   4.500000E+01   4.500000E+01   4.500000E+01   4.500000E+01   4.500000E+01   4.500000E+01   4.500000E+01   4.500000E+01   4.500000E+01   4.500000E+01
   4.500000E+01   4.500000E+01   4.500000E+01   4.500000E+01   4.500000E+01   4.500000E+01   4.500000E+01   4.500000E+01   4.500000E+01   4.500000E+01   4.500000E+01   4.500000E+01   4.500000E+01   4.500000E+01   4.500000E+01   4.500000E+01   4.500000E+01   4.500000E+01   4.500000E+01   4.500000E+01   4.500000E+01
   4.500000E+01   4.500000E+01   4.500000E+01   4.500000E+01   4.500000E+01   4.500000E+01   4.500000E+01   4.500000E+01   4.500000E+01   4.500000E+01   4.500000E+01   4.500000E+01   4.500000E+01   4.500000E+01   4.500000E+01   4.500000E+01   4.500000E+01   4.500000E+01   4.500000E+01   4.500000E+01   4.500000E+01
   4.500000E+01   4.500000E+01   4.500000E+01   4.500000E+01   4.500000E+01   4.500000E+01   4.500000E+01   4.500000E+01   4.500000E+01   4.500000E+01   4.500000E+01   4.500000E+01   4.500000E+01   4.500000E+01   4.500000E+01   4.500000E+01   4.500000E+01   4.500000E+01   4.500000E+01   4.500000E+01   4.500000E+01
   4.500000E+01   4.500000E+01   4.500000E+01   4.500000E+01   4.500000E+01   4.500000E+01   4.500000E+01   4.500000E+01   4.500000E+01   4.500000E+01   4.500000E+01   4.500000E+03   4.500000E+03   4.500000E+03   4.500000E+03   4.500000E+03   4.500000E+03   4.500000E+03   4.500000E+03   4.500000E+03   4.500000E+03
   4.500000E+01   4.500000E+01   4.500000E+01   4.500000E+01   4.500000E+01   4.500000E+01   4.500000E+01   4.500000E+01   4.500000E+01   4.500000E+01   4.500000E+01   4.500000E+01   4.500000E+01   4.500000E+01   4.500000E+01   4.500000E+01   4.500000E+01   4.500000E+01   4.500000E+01   4.500000E+01   4.500000E+01
   4.500000E+01   4.500000E+01   4.500000E+01   4.500000E+01   4.500000E+01   4.500000E+01   4.500000E+01   4.500000E+01   4.500000E+01   4.500000E+01   4.500000E+01   4.500000E+01   4.500000E+01   4.500000E+01   4.500000E+01   4.500000E+01   4.500000E+01   4.500000E+01   4.500000E+01   4.500000E+01   4.500000E+01
   4.500000E+01   4.500000E+01   4.500000E+01   4.500000E+01   4.500000E+01   4.500000E+01   4.500000E+01   4.500000E+01   4.500000E+01   4.500000E+01   4.500000E+01   4.500000E+01   4.500000E+01   4.500000E+01   4.500000E+01   4.500000E+01   4.500000E+01   4.500000E+01   4.500000E+01   4.500000E+01   4.500000E+01
   4.500000E+01   4.500000E+01   4.500000E+01   4.500000E+01   4.500000E+01   4.500000E+01   4.500000E+01   4.500000E+01   4.500000E+01   4.500000E+01   4.500000E+01   4.500000E+01   4.500000E+01   4.500000E+01   4.500000E+01   4.500000E+01   4.500000E+01   4.500000E+01   4.500000E+01   4.500000E+01   4.500000E+01
   4.500000E+01   4.500000E+01   4.500000E+01   4.500000E+01   4.500000E+01   4.500000E+01   4.500000E+01   4.500000E+01   4.500000E+01   4.500000E+01   4.500000E+01   4.500000E+01   4.500000E+01   4.500000E+01   4.500000E+01   4.500000E+01   4.500000E+01   4.500000E+01   4.500000E+01   4.500000E+01   4.500000E+01
CONSTANT    1.000000E+00                           #vka layer 1                   
