# BAS6 package for  MODFLOW-2000, generated by Flopy.
 FREE
INTERNAL               1    (21I10) -1 #ibound layer 1                
         1         1         1         1         1         1         1         1         1         1         0         0         0         0         0         0         0         0         0         0         0
         1         1         1         1         1         1         1         1         1         1         0         0         0         0         0         0         0         0         0         0         0
         1         1         1         1         1         1         1         1         1         1         0         0         0         0         0         0         0         0         0         0         0
         1         1         1         1         1         1         1         1         1         1         0         0         0         0         0         0         0         0         0         0         0
         1         1         1         1         1         1         1         1         1         1         0         0         0         0         0         0         0         0         0         0         0
         1         1         1         1         1         1         1         1         1         1         0         1         1         1         1         1         1         1         1         1         1
         1         1         1         1         1         1         1         1         1         1         0         1         1         1         1         1         1         1         1         1         1
         1         1         1         1         1         1         1         1         1         1         0         1         1         1         1         1         1         1         1         1         1
         1         1         1         1         1         1         1         1         1         1         0         1         1         1         1         1         1         1         1         1         1
         1         1         1         1         1         1         1         1         1         1         1         1         1         1         1         1         1         1         1         1         1
         1         1         1         1         1         1         1         1         1         1         1         1         1         1         1         1         1         1         1         1         1
        -999.99
INTERNAL               1  (21E15.6) -1 #strt layer 1                  
   5.500000E+01   5.500000E+01   5.500000E+01   5.500000E+01   5.500000E+01   5.500000E+01   5.500000E+01   5.500000E+01   5.500000E+01   5.500000E+01   5.500000E+01   5.500000E+01   5.500000E+01   5.500000E+01   5.500000E+01   5.500000E+01   5.500000E+01   5.500000E+01   5.500000E+01   5.500000E+01   5.500000E+01
   5.500000E+01   5.500000E+01   5.500000E+01   5.500000E+01   5.500000E+01   5.500000E+01   5.500000E+01   5.500000E+01   5.500000E+01   5.500000E+01   5.500000E+01   5.500000E+01   5.500000E+01   5.500000E+01   5.500000E+01   5.500000E+01   5.500000E+01   5.500000E+01   5.500000E+01   5.500000E+01   5.500000E+01
   5.500000E+01   5.500000E+01   5.500000E+01   5.500000E+01   5.500000E+01   5.500000E+01   5.500000E+01   5.500000E+01   5.500000E+01   5.500000E+01   5.500000E+01   5.500000E+01   5.500000E+01   5.500000E+01   5.500000E+01   5.500000E+01   5.500000E+01   5.500000E+01   5.500000E+01   5.500000E+01   5.500000E+01
   5.500000E+01   5.500000E+01   5.500000E+01   5.500000E+01   5.500000E+01   5.500000E+01   5.500000E+01   5.500000E+01   5.500000E+01   5.500000E+01   5.500000E+01   5.500000E+01   5.500000E+01   5.500000E+01   5.500000E+01   5.500000E+01   5.500000E+01   5.500000E+01   5.500000E+01   5.500000E+01   5.500000E+01
   5.500000E+01   5.500000E+01   5.500000E+01   5.500000E+01   5.500000E+01   5.500000E+01   5.500000E+01   5.500000E+01   5.500000E+01   5.500000E+01   5.500000E+01   5.500000E+01   5.500000E+01   5.500000E+01   5.500000E+01   5.500000E+01   5.500000E+01   5.500000E+01   5.500000E+01   5.500000E+01   5.500000E+01
   5.500000E+01   5.500000E+01   5.500000E+01   5.500000E+01   5.500000E+01   5.500000E+01   5.500000E+01   5.500000E+01   5.500000E+01   5.500000E+01   5.500000E+01   5.500000E+01   5.500000E+01   5.500000E+01   5.500000E+01   5.500000E+01   5.500000E+01   5.500000E+01   5.500000E+01   5.500000E+01   5.500000E+01
   5.500000E+01   5.500000E+01   5.500000E+01   5.500000E+01   5.500000E+01   5.500000E+01   5.500000E+01   5.500000E+01   5.500000E+01   5.500000E+01   5.500000E+01   5.500000E+01   5.500000E+01   5.500000E+01   5.500000E+01   5.500000E+01   5.500000E+01   5.500000E+01   5.500000E+01   5.500000E+01   5.500000E+01
   5.500000E+01   5.500000E+01   5.500000E+01   5.500000E+01   5.500000E+01   5.500000E+01   5.500000E+01   5.500000E+01   5.500000E+01   5.500000E+01   5.500000E+01   5.500000E+01   5.500000E+01   5.500000E+01   5.500000E+01   5.500000E+01   5.500000E+01   5.500000E+01   5.500000E+01   5.500000E+01   5.500000E+01
   5.500000E+01   5.500000E+01   5.500000E+01   5.500000E+01   5.500000E+01   5.500000E+01   5.500000E+01   5.500000E+01   5.500000E+01   5.500000E+01   5.500000E+01   5.500000E+01   5.500000E+01   5.500000E+01   5.500000E+01   5.500000E+01   5.500000E+01   5.500000E+01   5.500000E+01   5.500000E+01   5.500000E+01
   5.500000E+01   5.500000E+01   5.500000E+01   5.500000E+01   5.500000E+01   5.500000E+01   5.500000E+01   5.500000E+01   5.500000E+01   5.500000E+01   5.500000E+01   5.500000E+01   5.500000E+01   5.500000E+01   5.500000E+01   5.500000E+01   5.500000E+01   5.500000E+01   5.500000E+01   5.500000E+01   5.500000E+01
   5.500000E+01   5.500000E+01   5.500000E+01   5.500000E+01   5.500000E+01   5.500000E+01   5.500000E+01   5.500000E+01   5.500000E+01   5.500000E+01   5.500000E+01   5.500000E+01   5.500000E+01   5.500000E+01   5.500000E+01   5.500000E+01   5.500000E+01   5.500000E+01   5.500000E+01   5.500000E+01   5.500000E+01
