# Name file for MODFLOW-2000, generated by Flopy version 3.2.9.
#xul:5661342.803; yul:19628009.74; rotation:0; proj4_str:+proj=aea +lat_1=27.5 +lat_2=35 +lat_0=31.25 +lon_0=-100 +x_0=1500000 +y_0=6000000 +ellps=GRS80 +towgs84=0,0,0,0,0,0,0 +units=us-ft +no_defs; units:feet; lenuni:1; length_multiplier:1.0 ;start_datetime:1-1-1970
GLOBAL             1  test_case_2.glo
LIST               2  test_case_2.list
DIS               11  test_case_2.dis 
LPF               15  test_case_2.lpf 
BAS6              13  test_case_2.bas 
OC                14  test_case_2.oc 
CHD               24  test_case_2.chd 
PCG               27  test_case_2.pcg 
DATA(BINARY)      53  test_case_2.cbc REPLACE
DATA(BINARY)      51  test_case_2.hds REPLACE
