@ [ MODPATH 6.0 (TREF=   0.000000E+00 ) ] 
                  1       0.500000000000000E-02       0.500000000000000E+02       0.5000000E+00       0.125000000000000E+02       0.000000000000000E+00        1        1        1         1
                  2       0.125000000000000E+02       0.500000000000000E+02       0.5000000E+00       0.125000000000000E+02       0.000000000000000E+00        1        3        1         1
                  3       0.225000000000000E+02       0.500000000000000E+02       0.5000000E+00       0.125000000000000E+02       0.000000000000000E+00        1        5        1         1
                  4       0.325000000000000E+02       0.500000000000000E+02       0.5000000E+00       0.125000000000000E+02       0.000000000000000E+00        1        7        1         1
                  5       0.425000000000000E+02       0.500000000000000E+02       0.5000000E+00       0.125000000000000E+02       0.000000000000000E+00        1        9        1         1
                  1       0.500000000000000E-02       0.500000000000000E+02       0.5000000E+00       0.125000000000000E+02       0.000000000000000E+00        1        1        1         1
                  1       0.500000000000000E-02       0.500000000000000E+02       0.5000000E+00       0.125000000000000E+02       0.000000000000000E+00        2        1        1         1
                  1       0.504462196846944E-02       0.450000000000000E+02       0.5000000E+00       0.125000000000000E+02       0.246412856299199E+00        3        1        1         1
                  1       0.518464241760840E-02       0.400000000000000E+02       0.5000000E+00       0.125000000000000E+02       0.497327285991832E+00        4        1        1         1
                  1       0.544332906639668E-02       0.350000000000000E+02       0.5000000E+00       0.125000000000000E+02       0.757951211755032E+00        5        1        1         1
                  1       0.581270738870682E-02       0.306140476437134E+02       0.5000000E+00       0.125000000000000E+02       0.100000000000000E+01        5        1        1         1
                  2       0.125000000000000E+02       0.500000000000000E+02       0.5000000E+00       0.125000000000000E+02       0.000000000000000E+00        1        3        1         1
                  2       0.125000000000000E+02       0.500000000000000E+02       0.5000000E+00       0.125000000000000E+02       0.000000000000000E+00        2        3        1         1
                  2       0.126008503880292E+02       0.450000000000000E+02       0.5000000E+00       0.125000000000000E+02       0.234094202407623E+00        3        3        1         1
                  2       0.129163090363306E+02       0.400000000000000E+02       0.5000000E+00       0.125000000000000E+02       0.471674120012789E+00        4        3        1         1
                  2       0.134956404052405E+02       0.350000000000000E+02       0.5000000E+00       0.125000000000000E+02       0.716824762103023E+00        5        3        1         1
                  2       0.144401474598282E+02       0.300000000000000E+02       0.5000000E+00       0.125000000000000E+02       0.975076690354882E+00        6        3        1         1
                  2       0.145686464808144E+02       0.295347126690991E+02       0.5000000E+00       0.125000000000000E+02       0.100000000000000E+01        6        3        1         1
                  3       0.225000000000000E+02       0.500000000000000E+02       0.5000000E+00       0.125000000000000E+02       0.000000000000000E+00        1        5        1         1
                  3       0.225000000000000E+02       0.500000000000000E+02       0.5000000E+00       0.125000000000000E+02       0.000000000000000E+00        2        5        1         1
                  3       0.226416316380758E+02       0.450000000000000E+02       0.5000000E+00       0.125000000000000E+02       0.211445835722206E+00        3        5        1         1
                  3       0.230813970010434E+02       0.400000000000000E+02       0.5000000E+00       0.125000000000000E+02       0.424365770641156E+00        4        5        1         1
                  3       0.238775332186406E+02       0.350000000000000E+02       0.5000000E+00       0.125000000000000E+02       0.640630484770497E+00        5        5        1         1
                  3       0.250000000000000E+02       0.305702065279987E+02       0.5000000E+00       0.125000000000000E+02       0.837302018902057E+00        5        6        1         1
                  3       0.251350251459516E+02       0.300000000000000E+02       0.5000000E+00       0.125000000000000E+02       0.860569291326595E+00        6        6        1         1
                  3       0.262950038380990E+02       0.266231305577085E+02       0.5000000E+00       0.125000000000000E+02       0.100000000000000E+01        6        6        1         1
                  4       0.325000000000000E+02       0.500000000000000E+02       0.5000000E+00       0.125000000000000E+02       0.000000000000000E+00        1        7        1         1
                  4       0.325000000000000E+02       0.500000000000000E+02       0.5000000E+00       0.125000000000000E+02       0.000000000000000E+00        2        7        1         1
                  4       0.326298018307521E+02       0.450000000000000E+02       0.5000000E+00       0.125000000000000E+02       0.188329187456842E+00        3        7        1         1
                  4       0.330285743251506E+02       0.400000000000000E+02       0.5000000E+00       0.125000000000000E+02       0.375781941358533E+00        4        7        1         1
                  4       0.337348857279517E+02       0.350000000000000E+02       0.5000000E+00       0.125000000000000E+02       0.561646133930771E+00        5        7        1         1
                  4       0.348262276962156E+02       0.300000000000000E+02       0.5000000E+00       0.125000000000000E+02       0.745638325441355E+00        6        7        1         1
                  4       0.350000000000000E+02       0.294678719387575E+02       0.5000000E+00       0.125000000000000E+02       0.765118115336201E+00        6        8        1         1
                  4       0.362562201286750E+02       0.250000000000000E+02       0.5000000E+00       0.125000000000000E+02       0.908775354135657E+00        7        8        1         1
                  4       0.374222334483671E+02       0.220720145788125E+02       0.5000000E+00       0.125000000000000E+02       0.100000000000000E+01        7        8        1         1
                  5       0.425000000000000E+02       0.500000000000000E+02       0.5000000E+00       0.125000000000000E+02       0.000000000000000E+00        1        9        1         1
                  5       0.425000000000000E+02       0.500000000000000E+02       0.5000000E+00       0.125000000000000E+02       0.000000000000000E+00        2        9        1         1
                  5       0.425674532828529E+02       0.450000000000000E+02       0.5000000E+00       0.125000000000000E+02       0.172785148463183E+00        3        9        1         1
                  5       0.427726172568284E+02       0.400000000000000E+02       0.5000000E+00       0.125000000000000E+02       0.342805391822205E+00        4        9        1         1
                  5       0.431278674526233E+02       0.350000000000000E+02       0.5000000E+00       0.125000000000000E+02       0.507227059879255E+00        5        9        1         1
                  5       0.436546769875889E+02       0.300000000000000E+02       0.5000000E+00       0.125000000000000E+02       0.663115603036261E+00        6        9        1         1
                  5       0.443888049728098E+02       0.250000000000000E+02       0.5000000E+00       0.125000000000000E+02       0.807580132490095E+00        7        9        1         1
                  5       0.450000000000000E+02       0.221281106292174E+02       0.5000000E+00       0.125000000000000E+02       0.884425896071907E+00        7       10        1         1
                  5       0.453479860840289E+02       0.200000000000000E+02       0.5000000E+00       0.125000000000000E+02       0.931299065956491E+00        8       10        1         1
                  5       0.461788630122218E+02       0.164270467543843E+02       0.5000000E+00       0.125000000000000E+02       0.100000000000000E+01        8       10        1         1
                  1       0.581270738870682E-02       0.306140476437134E+02       0.5000000E+00       0.125000000000000E+02       0.100000000000000E+01        5        1        1         2
                  1       0.586846051221409E-02       0.300000000000000E+02       0.5000000E+00       0.125000000000000E+02       0.103519226609694E+01        6        1        1         2
                  1       0.655296407981205E-02       0.250000000000000E+02       0.5000000E+00       0.125000000000000E+02       0.133929915309668E+01        7        1        1         2
                  1       0.768819765038087E-02       0.200000000000000E+02       0.5000000E+00       0.125000000000000E+02       0.168718346983737E+01        8        1        1         2
                  1       0.914654226213876E-02       0.161937329586828E+02       0.5000000E+00       0.125000000000000E+02       0.200000000000000E+01        8        1        1         2
                  2       0.145686464808144E+02       0.295347126690991E+02       0.5000000E+00       0.125000000000000E+02       0.100000000000000E+01        6        3        1         2
                  2       0.150000000000000E+02       0.280293941728339E+02       0.5000000E+00       0.125000000000000E+02       0.108213209381202E+01        6        4        1         2
                  2       0.158684410658741E+02       0.250000000000000E+02       0.5000000E+00       0.125000000000000E+02       0.124110630869416E+01        7        4        1         2
                  2       0.180897742694703E+02       0.200000000000000E+02       0.5000000E+00       0.125000000000000E+02       0.152769452612907E+01        8        4        1         2
                  2       0.200000000000000E+02       0.172817793536991E+02       0.5000000E+00       0.125000000000000E+02       0.170270822097423E+01        8        5        1         2
                  2       0.216677717145480E+02       0.150000000000000E+02       0.5000000E+00       0.125000000000000E+02       0.184176241967756E+01        9        5        1         2
                  2       0.242539777230278E+02       0.126706797188361E+02       0.5000000E+00       0.125000000000000E+02       0.200000000000000E+01        9        5        1         2
                  3       0.262950038380990E+02       0.266231305577085E+02       0.5000000E+00       0.125000000000000E+02       0.100000000000000E+01        6        6        1         2
                  3       0.268710809074087E+02       0.250000000000000E+02       0.5000000E+00       0.125000000000000E+02       0.106812397067318E+01        7        6        1         2
                  3       0.295153201306647E+02       0.200000000000000E+02       0.5000000E+00       0.125000000000000E+02       0.128634809907904E+01        8        6        1         2
                  3       0.300000000000000E+02       0.193816960984919E+02       0.5000000E+00       0.125000000000000E+02       0.131449440867950E+01        8        7        1         2
                  3       0.330748957860051E+02       0.150000000000000E+02       0.5000000E+00       0.125000000000000E+02       0.148540945028611E+01        9        7        1         2
                  3       0.350000000000000E+02       0.132840271490833E+02       0.5000000E+00       0.125000000000000E+02       0.155728763916659E+01        9        8        1         2
                  3       0.381512724278157E+02       0.100000000000000E+02       0.5000000E+00       0.125000000000000E+02       0.166584003044487E+01       10        8        1         2
                  3       0.400000000000000E+02       0.893429083965203E+01       0.5000000E+00       0.125000000000000E+02       0.170462150386725E+01       10        9        1         2
                  3       0.450000000000000E+02       0.611554831270803E+01       0.5000000E+00       0.125000000000000E+02       0.178586064912078E+01       10       10        1         2
                  3       0.479149682646318E+02       0.500000000000000E+01       0.5000000E+00       0.125000000000000E+02       0.181765515235258E+01       11       10        1         2
                  3       0.500000000000000E+02       0.445304864075667E+01       0.5000000E+00       0.125000000000000E+02       0.183796336449465E+01       11       11        1         2
                  3       0.550000000000000E+02       0.446592913964124E+01       0.5000000E+00       0.125000000000000E+02       0.188401474106091E+01       11       12        1         2
                  3       0.569445392653034E+02       0.500000000000000E+01       0.5000000E+00       0.125000000000000E+02       0.190298245058375E+01       10       12        1         2
                  3       0.600000000000000E+02       0.624779933601977E+01       0.5000000E+00       0.125000000000000E+02       0.193643717085900E+01       10       13        1         2
                  3       0.639504269246712E+02       0.854269720044195E+01       0.5000000E+00       0.125000000000000E+02       0.200000000000000E+01       10       13        1         2
                  4       0.374222334483671E+02       0.220720145788125E+02       0.5000000E+00       0.125000000000000E+02       0.100000000000000E+01        7        8        1         2
                  4       0.382153223583291E+02       0.200000000000000E+02       0.5000000E+00       0.125000000000000E+02       0.106329048790067E+01        8        8        1         2
                  4       0.400000000000000E+02       0.169640564532887E+02       0.5000000E+00       0.125000000000000E+02       0.115524315830342E+01        8        9        1         2
                  4       0.408371917463937E+02       0.150000000000000E+02       0.5000000E+00       0.125000000000000E+02       0.119936852719729E+01        9        9        1         2
                  4       0.441830042001293E+02       0.100000000000000E+02       0.5000000E+00       0.125000000000000E+02       0.130722482210839E+01       10        9        1         2
                  4       0.450000000000000E+02       0.948249304865004E+01       0.5000000E+00       0.125000000000000E+02       0.131849030991719E+01       10       10        1         2
                  4       0.500000000000000E+02       0.639182862632230E+01       0.5000000E+00       0.125000000000000E+02       0.136710500898378E+01       10       11        1         2
                  4       0.550000000000000E+02       0.640003511834008E+01       0.5000000E+00       0.125000000000000E+02       0.140340942572678E+01       10       12        1         2
                  4       0.600000000000000E+02       0.968937838774192E+01       0.5000000E+00       0.125000000000000E+02       0.145244261413857E+01       10       13        1         2
                  4       0.604539902824978E+02       0.100000000000000E+02       0.5000000E+00       0.125000000000000E+02       0.145877131358174E+01        9       13        1         2
                  4       0.632620216862808E+02       0.150000000000000E+02       0.5000000E+00       0.125000000000000E+02       0.155893107744045E+01        8       13        1         2
                  4       0.646553609826018E+02       0.200000000000000E+02       0.5000000E+00       0.125000000000000E+02       0.166192562910461E+01        7       13        1         2
                  4       0.650000000000000E+02       0.237868031138863E+02       0.5000000E+00       0.125000000000000E+02       0.174296533695273E+01        7       14        1         2
                  4       0.651388389086650E+02       0.250000000000000E+02       0.5000000E+00       0.125000000000000E+02       0.177532542185559E+01        6       14        1         2
                  4       0.651388389086650E+02       0.250000000000000E+02       0.5000000E+00       0.125000000000000E+02       0.177532542185559E+01        6       14        1         2
                  5       0.461788630122218E+02       0.164270467543843E+02       0.5000000E+00       0.125000000000000E+02       0.100000000000000E+01        8       10        1         2
                  5       0.464332961137181E+02       0.150000000000000E+02       0.5000000E+00       0.125000000000000E+02       0.102406029203963E+01        9       10        1         2
                  5       0.476090075671904E+02       0.100000000000000E+02       0.5000000E+00       0.125000000000000E+02       0.109031563915570E+01       10       10        1         2
                  5       0.500000000000000E+02       0.840865185473194E+01       0.5000000E+00       0.125000000000000E+02       0.110993406442453E+01       10       11        1         2
                  5       0.550000000000000E+02       0.841227124652328E+01       0.5000000E+00       0.125000000000000E+02       0.114623848116753E+01       10       12        1         2
                  5       0.573106325903536E+02       0.100000000000000E+02       0.5000000E+00       0.125000000000000E+02       0.116513843852831E+01        9       12        1         2
                  5       0.582828914100464E+02       0.150000000000000E+02       0.5000000E+00       0.125000000000000E+02       0.122772092656757E+01        8       12        1         2
                  5       0.589546148565190E+02       0.200000000000000E+02       0.5000000E+00       0.125000000000000E+02       0.130989640702307E+01        7       12        1         2
                  5       0.591921239569698E+02       0.250000000000000E+02       0.5000000E+00       0.125000000000000E+02       0.140287788032488E+01        6       12        1         2
                  5       0.591921239569698E+02       0.250000000000000E+02       0.5000000E+00       0.125000000000000E+02       0.140287788032488E+01        6       12        1         2
                  1       0.914654226213876E-02       0.161937329586828E+02       0.5000000E+00       0.125000000000000E+02       0.200000000000000E+01        8        1        1         3
                  1       0.972508710295590E-02       0.150000000000000E+02       0.5000000E+00       0.125000000000000E+02       0.211046120626007E+01        9        1        1         3
                  1       0.101690851844368E-01       0.142873437691135E+02       0.5000000E+00       0.125000000000000E+02       0.218000000000000E+01        9        1        1         3
                  2       0.242539777230278E+02       0.126706797188361E+02       0.5000000E+00       0.125000000000000E+02       0.200000000000000E+01        9        5        1         3
                  2       0.250000000000000E+02       0.121035819144580E+02       0.5000000E+00       0.125000000000000E+02       0.204196339713657E+01        9        6        1         3
                  2       0.276048682377366E+02       0.100000000000000E+02       0.5000000E+00       0.125000000000000E+02       0.217698547264402E+01       10        6        1         3
                  2       0.276795473914635E+02       0.995603672519248E+01       0.5000000E+00       0.125000000000000E+02       0.218000000000000E+01       10        6        1         3
                  3       0.639504269246712E+02       0.854269720044195E+01       0.5000000E+00       0.125000000000000E+02       0.200000000000000E+01       10       13        1         3
                  3       0.650000000000000E+02       0.948705200078713E+01       0.5000000E+00       0.125000000000000E+02       0.202110128077509E+01       10       14        1         3
                  3       0.657838642506130E+02       0.100000000000000E+02       0.5000000E+00       0.125000000000000E+02       0.203816043793188E+01        9       14        1         3
                  3       0.693638660673291E+02       0.147125808400456E+02       0.5000000E+00       0.125000000000000E+02       0.218000000000000E+01        9       14        1         3
                  1       0.101690851844368E-01       0.142873437691135E+02       0.5000000E+00       0.125000000000000E+02       0.218000000000000E+01        9        1        1         3
                  1       0.140197547260288E-01       0.100000000000000E+02       0.5000000E+00       0.125000000000000E+02       0.268018491476840E+01       10        1        1         3
                  1       0.175861366362124E-01       0.791993376730094E+01       0.5000000E+00       0.125000000000000E+02       0.300000000000000E+01       10        1        1         3
                  2       0.276795473914635E+02       0.995603672519248E+01       0.5000000E+00       0.125000000000000E+02       0.218000000000000E+01       10        6        1         3
                  2       0.300000000000000E+02       0.874760495944622E+01       0.5000000E+00       0.125000000000000E+02       0.226804769967963E+01       10        7        1         3
                  2       0.350000000000000E+02       0.637166585884244E+01       0.5000000E+00       0.125000000000000E+02       0.242325875454226E+01       10        8        1         3
                  2       0.382342607598665E+02       0.500000000000000E+01       0.5000000E+00       0.125000000000000E+02       0.250207113494162E+01       11        8        1         3
                  2       0.400000000000000E+02       0.451835403685261E+01       0.5000000E+00       0.125000000000000E+02       0.253443788956698E+01       11        9        1         3
                  2       0.450000000000000E+02       0.323144019288528E+01       0.5000000E+00       0.125000000000000E+02       0.260780640914013E+01       11       10        1         3
                  2       0.500000000000000E+02       0.238375974218627E+01       0.5000000E+00       0.125000000000000E+02       0.266114095892271E+01       11       11        1         3
                  2       0.550000000000000E+02       0.239065479705257E+01       0.5000000E+00       0.125000000000000E+02       0.270719233548897E+01       11       12        1         3
                  2       0.600000000000000E+02       0.329587116233013E+01       0.5000000E+00       0.125000000000000E+02       0.276111017247210E+01       11       13        1         3
                  2       0.650000000000000E+02       0.474796676599417E+01       0.5000000E+00       0.125000000000000E+02       0.283699995892649E+01       11       14        1         3
                  2       0.658318854956606E+02       0.500000000000000E+01       0.5000000E+00       0.125000000000000E+02       0.285263636995562E+01       10       14        1         3
                  2       0.700000000000000E+02       0.710108831963205E+01       0.5000000E+00       0.125000000000000E+02       0.296103899375709E+01       10       15        1         3
                  2       0.712324395763602E+02       0.771808542584597E+01       0.5000000E+00       0.125000000000000E+02       0.300000000000000E+01       10       15        1         3
                  3       0.693638660673291E+02       0.147125808400456E+02       0.5000000E+00       0.125000000000000E+02       0.218000000000000E+01        9       14        1         3
                  3       0.695503549722201E+02       0.150000000000000E+02       0.5000000E+00       0.125000000000000E+02       0.218800225854846E+01        8       14        1         3
                  3       0.700000000000000E+02       0.162637753198373E+02       0.5000000E+00       0.125000000000000E+02       0.222288417247184E+01        8       15        1         3
                  3       0.716738600977609E+02       0.200000000000000E+02       0.5000000E+00       0.125000000000000E+02       0.235772100020284E+01        7       15        1         3
                  3       0.723386781152025E+02       0.250000000000000E+02       0.5000000E+00       0.125000000000000E+02       0.253021259898889E+01        6       15        1         3
                  3       0.723386781152025E+02       0.250000000000000E+02       0.5000000E+00       0.125000000000000E+02       0.253021259898889E+01        6       15        1         3
                  1       0.175861366362124E-01       0.791993376730094E+01       0.5000000E+00       0.125000000000000E+02       0.300000000000000E+01       10        1        1         4
                  1       0.273541586814138E-01       0.500000000000000E+01       0.5000000E+00       0.125000000000000E+02       0.362336117592260E+01       11        1        1         4
                  1       0.362159619160877E-01       0.377653349989616E+01       0.5000000E+00       0.125000000000000E+02       0.400000000000000E+01       11        1        1         4
                  2       0.712324395763602E+02       0.771808542584597E+01       0.5000000E+00       0.125000000000000E+02       0.300000000000000E+01       10       15        1         4
                  2       0.745880151212979E+02       0.100000000000000E+02       0.5000000E+00       0.125000000000000E+02       0.312338339153923E+01        9       15        1         4
                  2       0.750000000000000E+02       0.104938120132691E+02       0.5000000E+00       0.125000000000000E+02       0.314690065599875E+01        9       16        1         4
                  2       0.790528383188707E+02       0.150000000000000E+02       0.5000000E+00       0.125000000000000E+02       0.341068601966531E+01        8       16        1         4
                  2       0.800000000000000E+02       0.173184837707581E+02       0.5000000E+00       0.125000000000000E+02       0.352775671045781E+01        8       17        1         4
                  2       0.812740459233093E+02       0.200000000000000E+02       0.5000000E+00       0.125000000000000E+02       0.369590351082944E+01        7       17        1         4
                  2       0.819924490665249E+02       0.250000000000000E+02       0.5000000E+00       0.125000000000000E+02       0.399196356871294E+01        6       17        1         4
                  2       0.819924490665249E+02       0.250000000000000E+02       0.5000000E+00       0.125000000000000E+02       0.399196356871294E+01        6       17        1         4
                  1       0.362159619160877E-01       0.377653349989616E+01       0.5000000E+00       0.125000000000000E+02       0.400000000000000E+01       11        1        1         5
                  1       0.473579097871768E-01       0.288802428193532E+01       0.5000000E+00       0.125000000000000E+02       0.436000000000000E+01       11        1        1         5
                  1       0.473579097871768E-01       0.288802428193532E+01       0.5000000E+00       0.125000000000000E+02       0.436000000000000E+01       11        1        1         5
                  1       0.762939860548439E-01       0.179268118602102E+01       0.5000000E+00       0.125000000000000E+02       0.500000000000000E+01       11        1        1         5
                  1       0.762939860548439E-01       0.179268118602102E+01       0.5000000E+00       0.125000000000000E+02       0.500000000000000E+01       11        1        1         6
                  1       0.160723946022017E+00       0.850967119662013E+00       0.5000000E+00       0.125000000000000E+02       0.600000000000000E+01       11        1        1         6
                  1       0.160723946022017E+00       0.850967119662013E+00       0.5000000E+00       0.125000000000000E+02       0.600000000000000E+01       11        1        1         7
                  1       0.240336281873211E+00       0.569080924199460E+00       0.5000000E+00       0.125000000000000E+02       0.654000000000000E+01       11        1        1         7
                  1       0.240336281873211E+00       0.569080924199460E+00       0.5000000E+00       0.125000000000000E+02       0.654000000000000E+01       11        1        1         7
                  1       0.338587458339361E+00       0.403945243801634E+00       0.5000000E+00       0.125000000000000E+02       0.700000000000000E+01       11        1        1         7
                  1       0.338587458339361E+00       0.403945243801634E+00       0.5000000E+00       0.125000000000000E+02       0.700000000000000E+01       11        1        1         8
                  1       0.713281808853824E+00       0.191748607225588E+00       0.5000000E+00       0.125000000000000E+02       0.800000000000000E+01       11        1        1         8
                  1       0.713281808853824E+00       0.191748607225588E+00       0.5000000E+00       0.125000000000000E+02       0.800000000000000E+01       11        1        1         9
                  1       0.121968069630218E+01       0.112136556577250E+00       0.5000000E+00       0.125000000000000E+02       0.872000000000000E+01       11        1        1         9
                  1       0.121968069630218E+01       0.112136556577250E+00       0.5000000E+00       0.125000000000000E+02       0.872000000000000E+01       11        1        1         9
                  1       0.150262783310730E+01       0.910210701503106E-01       0.5000000E+00       0.125000000000000E+02       0.900000000000000E+01       11        1        1         9
                  1       0.150262783310730E+01       0.910210701503106E-01       0.5000000E+00       0.125000000000000E+02       0.900000000000000E+01       11        1        1        10