# Name file for MODFLOW-2000, generated by Flopy version 3.2.9.
#xul:0; yul:55; rotation:0; proj4_str:+init=EPSG:4326; units:meters; lenuni:2; length_multiplier:1.0 ;start_datetime:1-1-1970
GLOBAL             1  test_2.glo
LIST               2  test_2.list
DIS               11  test_2.dis 
LPF               15  test_2.lpf 
BAS6              13  test_2.bas 
OC                14  test_2.oc 
CHD               24  test_2.chd 
PCG               27  test_2.pcg 
DATA(BINARY)      53  test_2.cbc REPLACE
DATA(BINARY)      51  test_2.hds REPLACE
