# DIS package for  MODFLOW-NWT, generated by Flopy.
         1        11        21        30         4         2
  0
CONSTANT    5.000000E+00                           #delr                          
CONSTANT    5.000000E+00                           #delc                          
INTERNAL               1  (21E15.6) -1 #model_top                     
   5.000000E+00   5.000000E+00   5.000000E+00   5.000000E+00   5.000000E+00   5.000000E+00   5.000000E+00   5.000000E+00   5.000000E+00   5.000000E+00   5.000000E+00   5.000000E+00   5.000000E+00   5.000000E+00   5.000000E+00   5.000000E+00   5.000000E+00   5.000000E+00   5.000000E+00   5.000000E+00   5.000000E+00
   5.000000E+00   5.000000E+00   5.000000E+00   5.000000E+00   5.000000E+00   5.000000E+00   5.000000E+00   5.000000E+00   5.000000E+00   5.000000E+00   5.000000E+00   5.000000E+00   5.000000E+00   5.000000E+00   5.000000E+00   5.000000E+00   5.000000E+00   5.000000E+00   5.000000E+00   5.000000E+00   5.000000E+00
   5.000000E+00   5.000000E+00   5.000000E+00   5.000000E+00   5.000000E+00   5.000000E+00   5.000000E+00   5.000000E+00   5.000000E+00   5.000000E+00   5.000000E+00   5.000000E+00   5.000000E+00   5.000000E+00   5.000000E+00   5.000000E+00   5.000000E+00   5.000000E+00   5.000000E+00   5.000000E+00   5.000000E+00
   5.000000E+00   5.000000E+00   5.000000E+00   5.000000E+00   5.000000E+00   5.000000E+00   5.000000E+00   5.000000E+00   5.000000E+00   5.000000E+00   5.000000E+00   5.000000E+00   5.000000E+00   5.000000E+00   5.000000E+00   5.000000E+00   5.000000E+00   5.000000E+00   5.000000E+00   5.000000E+00   5.000000E+00
   5.000000E+00   5.000000E+00   5.000000E+00   5.000000E+00   5.000000E+00   5.000000E+00   5.000000E+00   5.000000E+00   5.000000E+00   5.000000E+00   5.000000E+00   5.000000E+00   5.000000E+00   5.000000E+00   5.000000E+00   5.000000E+00   5.000000E+00   5.000000E+00   5.000000E+00   5.000000E+00   5.000000E+00
   5.000000E+00   5.000000E+00   5.000000E+00   5.000000E+00   5.000000E+00   5.000000E+00   5.000000E+00   5.000000E+00   5.000000E+00   5.000000E+00   5.000000E+00   5.000000E+00   5.000000E+00   5.000000E+00   5.000000E+00   5.000000E+00   5.000000E+00   5.000000E+00   5.000000E+00   5.000000E+00   5.000000E+00
   5.000000E+00   5.000000E+00   5.000000E+00   5.000000E+00   5.000000E+00   5.000000E+00   5.000000E+00   5.000000E+00   5.000000E+00   5.000000E+00   5.000000E+00   5.000000E+00   5.000000E+00   5.000000E+00   5.000000E+00   5.000000E+00   5.000000E+00   5.000000E+00   5.000000E+00   5.000000E+00   5.000000E+00
   5.000000E+00   5.000000E+00   5.000000E+00   5.000000E+00   5.000000E+00   5.000000E+00   5.000000E+00   5.000000E+00   5.000000E+00   5.000000E+00   5.000000E+00   5.000000E+00   5.000000E+00   5.000000E+00   5.000000E+00   5.000000E+00   5.000000E+00   5.000000E+00   5.000000E+00   5.000000E+00   5.000000E+00
   5.000000E+00   5.000000E+00   5.000000E+00   5.000000E+00   5.000000E+00   5.000000E+00   5.000000E+00   5.000000E+00   5.000000E+00   5.000000E+00   5.000000E+00   5.000000E+00   5.000000E+00   5.000000E+00   5.000000E+00   5.000000E+00   5.000000E+00   5.000000E+00   5.000000E+00   5.000000E+00   5.000000E+00
   5.000000E+00   5.000000E+00   5.000000E+00   5.000000E+00   5.000000E+00   5.000000E+00   5.000000E+00   5.000000E+00   5.000000E+00   5.000000E+00   5.000000E+00   5.000000E+00   5.000000E+00   5.000000E+00   5.000000E+00   5.000000E+00   5.000000E+00   5.000000E+00   5.000000E+00   5.000000E+00   5.000000E+00
   5.000000E+00   5.000000E+00   5.000000E+00   5.000000E+00   5.000000E+00   5.000000E+00   5.000000E+00   5.000000E+00   5.000000E+00   5.000000E+00   5.000000E+00   5.000000E+00   5.000000E+00   5.000000E+00   5.000000E+00   5.000000E+00   5.000000E+00   5.000000E+00   5.000000E+00   5.000000E+00   5.000000E+00
INTERNAL               1  (21E15.6) -1 #botm layer 1                  
   0.000000E+00   0.000000E+00   0.000000E+00   0.000000E+00   0.000000E+00   0.000000E+00   0.000000E+00   0.000000E+00   0.000000E+00   0.000000E+00   0.000000E+00   0.000000E+00   0.000000E+00   0.000000E+00   0.000000E+00   0.000000E+00   0.000000E+00   0.000000E+00   0.000000E+00   0.000000E+00   0.000000E+00
   0.000000E+00   0.000000E+00   0.000000E+00   0.000000E+00   0.000000E+00   0.000000E+00   0.000000E+00   0.000000E+00   0.000000E+00   0.000000E+00   0.000000E+00   0.000000E+00   0.000000E+00   0.000000E+00   0.000000E+00   0.000000E+00   0.000000E+00   0.000000E+00   0.000000E+00   0.000000E+00   0.000000E+00
   0.000000E+00   0.000000E+00   0.000000E+00   0.000000E+00   0.000000E+00   0.000000E+00   0.000000E+00   0.000000E+00   0.000000E+00   0.000000E+00   0.000000E+00   0.000000E+00   0.000000E+00   0.000000E+00   0.000000E+00   0.000000E+00   0.000000E+00   0.000000E+00   0.000000E+00   0.000000E+00   0.000000E+00
   0.000000E+00   0.000000E+00   0.000000E+00   0.000000E+00   0.000000E+00   0.000000E+00   0.000000E+00   0.000000E+00   0.000000E+00   0.000000E+00   0.000000E+00   0.000000E+00   0.000000E+00   0.000000E+00   0.000000E+00   0.000000E+00   0.000000E+00   0.000000E+00   0.000000E+00   0.000000E+00   0.000000E+00
   0.000000E+00   0.000000E+00   0.000000E+00   0.000000E+00   0.000000E+00   0.000000E+00   0.000000E+00   0.000000E+00   0.000000E+00   0.000000E+00   0.000000E+00   0.000000E+00   0.000000E+00   0.000000E+00   0.000000E+00   0.000000E+00   0.000000E+00   0.000000E+00   0.000000E+00   0.000000E+00   0.000000E+00
   0.000000E+00   0.000000E+00   0.000000E+00   0.000000E+00   0.000000E+00   0.000000E+00   0.000000E+00   0.000000E+00   0.000000E+00   0.000000E+00   0.000000E+00   0.000000E+00   0.000000E+00   0.000000E+00   0.000000E+00   0.000000E+00   0.000000E+00   0.000000E+00   0.000000E+00   0.000000E+00   0.000000E+00
   0.000000E+00   0.000000E+00   0.000000E+00   0.000000E+00   0.000000E+00   0.000000E+00   0.000000E+00   0.000000E+00   0.000000E+00   0.000000E+00   0.000000E+00   0.000000E+00   0.000000E+00   0.000000E+00   0.000000E+00   0.000000E+00   0.000000E+00   0.000000E+00   0.000000E+00   0.000000E+00   0.000000E+00
   0.000000E+00   0.000000E+00   0.000000E+00   0.000000E+00   0.000000E+00   0.000000E+00   0.000000E+00   0.000000E+00   0.000000E+00   0.000000E+00   0.000000E+00   0.000000E+00   0.000000E+00   0.000000E+00   0.000000E+00   0.000000E+00   0.000000E+00   0.000000E+00   0.000000E+00   0.000000E+00   0.000000E+00
   0.000000E+00   0.000000E+00   0.000000E+00   0.000000E+00   0.000000E+00   0.000000E+00   0.000000E+00   0.000000E+00   0.000000E+00   0.000000E+00   0.000000E+00   0.000000E+00   0.000000E+00   0.000000E+00   0.000000E+00   0.000000E+00   0.000000E+00   0.000000E+00   0.000000E+00   0.000000E+00   0.000000E+00
   0.000000E+00   0.000000E+00   0.000000E+00   0.000000E+00   0.000000E+00   0.000000E+00   0.000000E+00   0.000000E+00   0.000000E+00   0.000000E+00   0.000000E+00   0.000000E+00   0.000000E+00   0.000000E+00   0.000000E+00   0.000000E+00   0.000000E+00   0.000000E+00   0.000000E+00   0.000000E+00   0.000000E+00
   0.000000E+00   0.000000E+00   0.000000E+00   0.000000E+00   0.000000E+00   0.000000E+00   0.000000E+00   0.000000E+00   0.000000E+00   0.000000E+00   0.000000E+00   0.000000E+00   0.000000E+00   0.000000E+00   0.000000E+00   0.000000E+00   0.000000E+00   0.000000E+00   0.000000E+00   0.000000E+00   0.000000E+00
      1.000000             1  1.000000  SS 
      1.000000             1  1.000000  SS 
      1.000000             1  1.000000  SS 
      1.000000             1  1.000000  SS 
      1.000000             1  1.000000  SS 
      1.000000             1  1.000000  SS 
      1.000000             1  1.000000  SS 
      1.000000             1  1.000000  SS 
      1.000000             1  1.000000  SS 
      1.000000             1  1.000000  SS 
      1.000000             1  1.000000  SS 
      1.000000             1  1.000000  SS 
      1.000000             1  1.000000  SS 
      1.000000             1  1.000000  SS 
      1.000000             1  1.000000  SS 
      1.000000             1  1.000000  SS 
      1.000000             1  1.000000  SS 
      1.000000             1  1.000000  SS 
      1.000000             1  1.000000  SS 
      1.000000             1  1.000000  SS 
      1.000000             1  1.000000  SS 
      1.000000             1  1.000000  SS 
      1.000000             1  1.000000  SS 
      1.000000             1  1.000000  SS 
      1.000000             1  1.000000  SS 
      1.000000             1  1.000000  SS 
      1.000000             1  1.000000  SS 
      1.000000             1  1.000000  SS 
      1.000000             1  1.000000  SS 
      1.000000             1  1.000000  SS 
