# BAS6 package for  MODFLOW-NWT, generated by Flopy.
 FREE
INTERNAL               1    (21I10) -1 #ibound layer 1                
         1         1         1         1         1         1         1         1         1         1         0         0         0         0         0         0         0         0         0         0         0
         1         1         1         1         1         1         1         1         1         1         0         0         0         0         0         0         0         0         0         0         0
         1         1         1         1         1         1         1         1         1         1         0         0         0         0         0         0         0         0         0         0         0
         1         1         1         1         1         1         1         1         1         1         0         0         0         0         0         0         0         0         0         0         0
         1         1         1         1         1         1         1         1         1         1         0         0         0         0         0         0         0         0         0         0         0
         1         1         1         1         1         1         1         1         1         1         0         1         1         1         1         1         1         1         1         1         1
         1         1         1         1         1         1         1         1         1         1         0         1         1         1         1         1         1         1         1         1         1
         1         1         1         1         1         1         1         1         1         1         0         1         1         1         1         1         1         1         1         1         1
         1         1         1         1         1         1         1         1         1         1         0         1         1         1         1         1         1         1         1         1         1
         1         1         1         1         1         1         1         1         1         1         1         1         1         1         1         1         1         1         1         1         1
         1         1         1         1         1         1         1         1         1         1         1         1         1         1         1         1         1         1         1         1         1
        -999.99
CONSTANT    5.500000E+01                           #strt layer 1                  
