MODPATH_TIMESERIES_FILE 6 0                                                     
 1   0.000000000000000E+00
END HEADER
    0     1   0.000000000000000E+00          1     1   0.500000000000000E-02   0.500000000000000E+02   0.125000000000000E+02  1    1    1    1   0.1000000E-02   0.0000000E+00   0.5000000E+00
    0     1   0.000000000000000E+00          2     1   0.125000000000000E+02   0.500000000000000E+02   0.125000000000000E+02  1    1    1    3   0.5000000E+00   0.0000000E+00   0.5000000E+00
    0     1   0.000000000000000E+00          3     1   0.225000000000000E+02   0.500000000000000E+02   0.125000000000000E+02  1    1    1    5   0.5000000E+00   0.0000000E+00   0.5000000E+00
    0     1   0.000000000000000E+00          4     1   0.325000000000000E+02   0.500000000000000E+02   0.125000000000000E+02  1    1    1    7   0.5000000E+00   0.0000000E+00   0.5000000E+00
    0     1   0.000000000000000E+00          5     1   0.425000000000000E+02   0.500000000000000E+02   0.125000000000000E+02  1    1    1    9   0.5000000E+00   0.0000000E+00   0.5000000E+00
    0     1   0.000000000000000E+00          1     1   0.500000000000000E-02   0.500000000000000E+02   0.125000000000000E+02  1    1    1    1   0.1000000E-02   0.0000000E+00   0.5000000E+00
    0     1   0.000000000000000E+00          2     1   0.125000000000000E+02   0.500000000000000E+02   0.125000000000000E+02  1    1    1    3   0.5000000E+00   0.0000000E+00   0.5000000E+00
    0     1   0.000000000000000E+00          3     1   0.225000000000000E+02   0.500000000000000E+02   0.125000000000000E+02  1    1    1    5   0.5000000E+00   0.0000000E+00   0.5000000E+00
    0     1   0.000000000000000E+00          4     1   0.325000000000000E+02   0.500000000000000E+02   0.125000000000000E+02  1    1    1    7   0.5000000E+00   0.0000000E+00   0.5000000E+00
    0     1   0.000000000000000E+00          5     1   0.425000000000000E+02   0.500000000000000E+02   0.125000000000000E+02  1    1    1    9   0.5000000E+00   0.0000000E+00   0.5000000E+00
    2     3   0.218000000000000E+01          1     1   0.101691587574261E-01   0.142872305906791E+02   0.125000000000000E+02  1    1    9    1   0.2033832E-02   0.8574461E+00   0.5000000E+00
    2     3   0.218000000000000E+01          2     1   0.276798276251217E+02   0.995587275419748E+01   0.125000000000000E+02  1    1   10    6   0.5359655E+00   0.9911746E+00   0.5000000E+00
    2     3   0.218000000000000E+01          3     1   0.693641294606793E+02   0.147129845718289E+02   0.125000000000000E+02  1    1    9   14   0.8728259E+00   0.9425969E+00   0.5000000E+00
    3     5   0.436000000000000E+01          1     1   0.473583107326853E-01   0.288799996966146E+01   0.125000000000000E+02  1    1   11    1   0.9471662E-02   0.5776000E+00   0.5000000E+00
    4     7   0.654000000000000E+01          1     1   0.240338316628401E+00   0.569076133501762E+00   0.125000000000000E+02  1    1   11    1   0.4806766E-01   0.1138152E+00   0.5000000E+00
    5     9   0.872000000000000E+01          1     1   0.121969102246520E+01   0.112135612577336E+00   0.125000000000000E+02  1    1   11    1   0.2439382E+00   0.2242712E-01   0.5000000E+00
    6    11   0.109000000000000E+02          1     1   0.619625170759514E+01   0.218667790370742E-01   0.125000000000000E+02  1    1   11    2   0.2392503E+00   0.4373356E-02   0.5000000E+00
    7    14   0.130800000000000E+02          1     1   0.399576534030226E+02   0.178062456515252E-02   0.125000000000000E+02  1    1   11    8   0.9915307E+00   0.3561249E-03   0.5000000E+00
    8    16   0.152600000000000E+02          1     1   0.943947756692615E+02   0.175301026189695E-01   0.125000000000000E+02  1    1   11   19   0.8789551E+00   0.3506021E-02   0.5000000E+00
    9    18   0.174400000000000E+02          1     1   0.101619431572403E+03   0.586133557181789E-01   0.125000000000000E+02  1    1   11   21   0.3238863E+00   0.1172267E-01   0.5000000E+00
   10    20   0.196200000000000E+02          1     1   0.103898287908915E+03   0.179853213357361E+00   0.125000000000000E+02  1    1   11   21   0.7796576E+00   0.3597064E-01   0.5000000E+00
