MODPATH_TIMESERIES_FILE 6 0                                                     
 1   0.000000000000000E+00
END HEADER
    0     1   0.000000000000000E+00          1     1   0.750000000000000E-02   0.500000000000000E+01   0.125000000000000E+02  1    1   11    1   0.1500000E-02   0.1000000E+01   0.5000000E+00
    0     1   0.000000000000000E+00          2     1   0.125000000000000E+02   0.500000000000000E+02   0.125000000000000E+02  1    1    1    3   0.5000000E+00   0.0000000E+00   0.5000000E+00
    0     1   0.000000000000000E+00          3     1   0.225000000000000E+02   0.500000000000000E+02   0.125000000000000E+02  1    1    1    5   0.5000000E+00   0.0000000E+00   0.5000000E+00
    0     1   0.000000000000000E+00          4     1   0.325000000000000E+02   0.500000000000000E+02   0.125000000000000E+02  1    1    1    7   0.5000000E+00   0.0000000E+00   0.5000000E+00
    0     1   0.000000000000000E+00          5     1   0.425000000000000E+02   0.500000000000000E+02   0.125000000000000E+02  1    1    1    9   0.5000000E+00   0.0000000E+00   0.5000000E+00
    0     1   0.000000000000000E+00          1     1   0.750000000000000E-02   0.500000000000000E+01   0.125000000000000E+02  1    1   11    1   0.1500000E-02   0.1000000E+01   0.5000000E+00
    0     1   0.000000000000000E+00          2     1   0.125000000000000E+02   0.500000000000000E+02   0.125000000000000E+02  1    1    1    3   0.5000000E+00   0.0000000E+00   0.5000000E+00
    0     1   0.000000000000000E+00          3     1   0.225000000000000E+02   0.500000000000000E+02   0.125000000000000E+02  1    1    1    5   0.5000000E+00   0.0000000E+00   0.5000000E+00
    0     1   0.000000000000000E+00          4     1   0.325000000000000E+02   0.500000000000000E+02   0.125000000000000E+02  1    1    1    7   0.5000000E+00   0.0000000E+00   0.5000000E+00
    0     1   0.000000000000000E+00          5     1   0.425000000000000E+02   0.500000000000000E+02   0.125000000000000E+02  1    1    1    9   0.5000000E+00   0.0000000E+00   0.5000000E+00
    2     3   0.218000000000000E+01          1     1   0.380620133857152E-01   0.985234270714483E+00   0.125000000000000E+02  1    1   11    1   0.7612403E-02   0.1970469E+00   0.5000000E+00
    2     3   0.218000000000000E+01          2     1   0.276798276251217E+02   0.995587275419748E+01   0.125000000000000E+02  1    1   10    6   0.5359655E+00   0.9911746E+00   0.5000000E+00
    2     3   0.218000000000000E+01          3     1   0.693641294606793E+02   0.147129845718289E+02   0.125000000000000E+02  1    1    9   14   0.8728259E+00   0.9425969E+00   0.5000000E+00
    3     5   0.436000000000000E+01          1     1   0.193160623627211E+00   0.194138946622852E+00   0.125000000000000E+02  1    1   11    1   0.3863212E-01   0.3882779E-01   0.5000000E+00
    4     7   0.654000000000000E+01          1     1   0.980269321334042E+00   0.382547930286816E-01   0.125000000000000E+02  1    1   11    1   0.1960539E+00   0.7650959E-02   0.5000000E+00
    5     9   0.872000000000000E+01          1     1   0.497476102688114E+01   0.753805053094382E-02   0.125000000000000E+02  1    1   11    1   0.9949522E+00   0.1507610E-02   0.5000000E+00
    6    11   0.109000000000000E+02          1     1   0.284156141991447E+02   0.984079053069738E-03   0.125000000000000E+02  1    1   11    6   0.6831228E+00   0.1968158E-03   0.5000000E+00
    7    14   0.130800000000000E+02          1     1   0.925087461143656E+02   0.394070878326638E-02   0.125000000000000E+02  1    1   11   19   0.5017492E+00   0.7881418E-03   0.5000000E+00
    8    16   0.152600000000000E+02          1     1   0.101069049216920E+03   0.138205902614823E-01   0.125000000000000E+02  1    1   11   21   0.2138098E+00   0.2764118E-02   0.5000000E+00
    9    18   0.174400000000000E+02          1     1   0.103718920767340E+03   0.424080406004142E-01   0.125000000000000E+02  1    1   11   21   0.7437842E+00   0.8481608E-02   0.5000000E+00
   10    20   0.196200000000000E+02          1     1   0.104582502022814E+03   0.130127720563325E+00   0.125000000000000E+02  1    1   11   21   0.9165004E+00   0.2602554E-01   0.5000000E+00
