# CHD package for  MODFLOW-NWT, generated by Flopy.
       236
       236         0 # stress period 1
         1         1        33   1.0000000E+02   1.0000000E+02
         1         1        34   1.0000000E+02   1.0000000E+02
         1         1        35   1.0000000E+02   1.0000000E+02
         1         1        36   1.0000000E+02   1.0000000E+02
         1         1        37   1.0000000E+02   1.0000000E+02
         1         1        38   1.0000000E+02   1.0000000E+02
         1         1        39   1.0000000E+02   1.0000000E+02
         1         1        40   1.0000000E+02   1.0000000E+02
         1         1        41   1.0000000E+02   1.0000000E+02
         1         1        42   1.0000000E+02   1.0000000E+02
         1         1        43   1.0000000E+02   1.0000000E+02
         1         1        44   1.0000000E+02   1.0000000E+02
         1         1        45   1.0000000E+02   1.0000000E+02
         1         1        46   1.0000000E+02   1.0000000E+02
         1         1        47   1.0000000E+02   1.0000000E+02
         1         1        48   1.0000000E+02   1.0000000E+02
         1         1        49   1.0000000E+02   1.0000000E+02
         1         2        29   1.0000000E+02   1.0000000E+02
         1         2        30   1.0000000E+02   1.0000000E+02
         1         2        31   1.0000000E+02   1.0000000E+02
         1         2        32   1.0000000E+02   1.0000000E+02
         1         2        50   1.0000000E+02   1.0000000E+02
         1         2        51   1.0000000E+02   1.0000000E+02
         1         2        52   1.0000000E+02   1.0000000E+02
         1         2        53   1.0000000E+02   1.0000000E+02
         1         3        26   1.0000000E+02   1.0000000E+02
         1         3        27   1.0000000E+02   1.0000000E+02
         1         3        28   1.0000000E+02   1.0000000E+02
         1         3        54   1.0000000E+02   1.0000000E+02
         1         3        55   1.0000000E+02   1.0000000E+02
         1         3        56   1.0000000E+02   1.0000000E+02
         1         4        24   1.0000000E+02   1.0000000E+02
         1         4        25   1.0000000E+02   1.0000000E+02
         1         4        57   1.0000000E+02   1.0000000E+02
         1         4        58   1.0000000E+02   1.0000000E+02
         1         5        22   1.0000000E+02   1.0000000E+02
         1         5        23   1.0000000E+02   1.0000000E+02
         1         5        59   1.0000000E+02   1.0000000E+02
         1         5        60   1.0000000E+02   1.0000000E+02
         1         6        20   1.0000000E+02   1.0000000E+02
         1         6        21   1.0000000E+02   1.0000000E+02
         1         6        61   1.0000000E+02   1.0000000E+02
         1         6        62   1.0000000E+02   1.0000000E+02
         1         7        19   1.0000000E+02   1.0000000E+02
         1         7        63   1.0000000E+02   1.0000000E+02
         1         8        17   1.0000000E+02   1.0000000E+02
         1         8        18   1.0000000E+02   1.0000000E+02
         1         8        64   1.0000000E+02   1.0000000E+02
         1         8        65   1.0000000E+02   1.0000000E+02
         1         9        16   1.0000000E+02   1.0000000E+02
         1         9        17   1.0000000E+02   1.0000000E+02
         1         9        65   1.0000000E+02   1.0000000E+02
         1         9        66   1.0000000E+02   1.0000000E+02
         1        10        15   1.0000000E+02   1.0000000E+02
         1        10        67   1.0000000E+02   1.0000000E+02
         1        11        14   1.0000000E+02   1.0000000E+02
         1        11        68   1.0000000E+02   1.0000000E+02
         1        12        13   1.0000000E+02   1.0000000E+02
         1        12        69   1.0000000E+02   1.0000000E+02
         1        13        12   1.0000000E+02   1.0000000E+02
         1        13        70   1.0000000E+02   1.0000000E+02
         1        14        11   1.0000000E+02   1.0000000E+02
         1        14        71   1.0000000E+02   1.0000000E+02
         1        15        10   1.0000000E+02   1.0000000E+02
         1        15        72   1.0000000E+02   1.0000000E+02
         1        16         9   1.0000000E+02   1.0000000E+02
         1        16        73   1.0000000E+02   1.0000000E+02
         1        17         8   1.0000000E+02   1.0000000E+02
         1        17         9   1.0000000E+02   1.0000000E+02
         1        17        73   1.0000000E+02   1.0000000E+02
         1        17        74   1.0000000E+02   1.0000000E+02
         1        18         8   1.0000000E+02   1.0000000E+02
         1        18        74   1.0000000E+02   1.0000000E+02
         1        19         7   1.0000000E+02   1.0000000E+02
         1        19        75   1.0000000E+02   1.0000000E+02
         1        20         6   1.0000000E+02   1.0000000E+02
         1        20        76   1.0000000E+02   1.0000000E+02
         1        21         6   1.0000000E+02   1.0000000E+02
         1        21        76   1.0000000E+02   1.0000000E+02
         1        22         5   1.0000000E+02   1.0000000E+02
         1        22        77   1.0000000E+02   1.0000000E+02
         1        23         5   1.0000000E+02   1.0000000E+02
         1        23        77   1.0000000E+02   1.0000000E+02
         1        24         4   1.0000000E+02   1.0000000E+02
         1        24        78   1.0000000E+02   1.0000000E+02
         1        25         4   1.0000000E+02   1.0000000E+02
         1        25        78   1.0000000E+02   1.0000000E+02
         1        26         3   1.0000000E+02   1.0000000E+02
         1        26        79   1.0000000E+02   1.0000000E+02
         1        27         3   1.0000000E+02   1.0000000E+02
         1        27        79   1.0000000E+02   1.0000000E+02
         1        28         3   1.0000000E+02   1.0000000E+02
         1        28        79   1.0000000E+02   1.0000000E+02
         1        29         2   1.0000000E+02   1.0000000E+02
         1        29        80   1.0000000E+02   1.0000000E+02
         1        30         2   1.0000000E+02   1.0000000E+02
         1        30        80   1.0000000E+02   1.0000000E+02
         1        31         2   1.0000000E+02   1.0000000E+02
         1        31        80   1.0000000E+02   1.0000000E+02
         1        32         2   1.0000000E+02   1.0000000E+02
         1        32        80   1.0000000E+02   1.0000000E+02
         1        33         1   1.0000000E+02   1.0000000E+02
         1        33        81   1.0000000E+02   1.0000000E+02
         1        34         1   1.0000000E+02   1.0000000E+02
         1        34        81   1.0000000E+02   1.0000000E+02
         1        35         1   1.0000000E+02   1.0000000E+02
         1        35        81   1.0000000E+02   1.0000000E+02
         1        36         1   1.0000000E+02   1.0000000E+02
         1        36        81   1.0000000E+02   1.0000000E+02
         1        37         1   1.0000000E+02   1.0000000E+02
         1        37        81   1.0000000E+02   1.0000000E+02
         1        38         1   1.0000000E+02   1.0000000E+02
         1        38        81   1.0000000E+02   1.0000000E+02
         1        39         1   1.0000000E+02   1.0000000E+02
         1        39        81   1.0000000E+02   1.0000000E+02
         1        40         1   1.0000000E+02   1.0000000E+02
         1        40        81   1.0000000E+02   1.0000000E+02
         1        41         1   1.0000000E+02   1.0000000E+02
         1        41        81   1.0000000E+02   1.0000000E+02
         1        42         1   1.0000000E+02   1.0000000E+02
         1        42        81   1.0000000E+02   1.0000000E+02
         1        43         1   1.0000000E+02   1.0000000E+02
         1        43        81   1.0000000E+02   1.0000000E+02
         1        44         1   1.0000000E+02   1.0000000E+02
         1        44        81   1.0000000E+02   1.0000000E+02
         1        45         1   1.0000000E+02   1.0000000E+02
         1        45        81   1.0000000E+02   1.0000000E+02
         1        46         1   1.0000000E+02   1.0000000E+02
         1        46        81   1.0000000E+02   1.0000000E+02
         1        47         1   1.0000000E+02   1.0000000E+02
         1        47        81   1.0000000E+02   1.0000000E+02
         1        48         1   1.0000000E+02   1.0000000E+02
         1        48        81   1.0000000E+02   1.0000000E+02
         1        49         1   1.0000000E+02   1.0000000E+02
         1        49        81   1.0000000E+02   1.0000000E+02
         1        50         2   1.0000000E+02   1.0000000E+02
         1        50        80   1.0000000E+02   1.0000000E+02
         1        51         2   1.0000000E+02   1.0000000E+02
         1        51        80   1.0000000E+02   1.0000000E+02
         1        52         2   1.0000000E+02   1.0000000E+02
         1        52        80   1.0000000E+02   1.0000000E+02
         1        53         2   1.0000000E+02   1.0000000E+02
         1        53        80   1.0000000E+02   1.0000000E+02
         1        54         3   1.0000000E+02   1.0000000E+02
         1        54        79   1.0000000E+02   1.0000000E+02
         1        55         3   1.0000000E+02   1.0000000E+02
         1        55        79   1.0000000E+02   1.0000000E+02
         1        56         3   1.0000000E+02   1.0000000E+02
         1        56        79   1.0000000E+02   1.0000000E+02
         1        57         4   1.0000000E+02   1.0000000E+02
         1        57        78   1.0000000E+02   1.0000000E+02
         1        58         4   1.0000000E+02   1.0000000E+02
         1        58        78   1.0000000E+02   1.0000000E+02
         1        59         5   1.0000000E+02   1.0000000E+02
         1        59        77   1.0000000E+02   1.0000000E+02
         1        60         5   1.0000000E+02   1.0000000E+02
         1        60        77   1.0000000E+02   1.0000000E+02
         1        61         6   1.0000000E+02   1.0000000E+02
         1        61        76   1.0000000E+02   1.0000000E+02
         1        62         6   1.0000000E+02   1.0000000E+02
         1        62        76   1.0000000E+02   1.0000000E+02
         1        63         7   1.0000000E+02   1.0000000E+02
         1        63        75   1.0000000E+02   1.0000000E+02
         1        64         8   1.0000000E+02   1.0000000E+02
         1        64        74   1.0000000E+02   1.0000000E+02
         1        65         8   1.0000000E+02   1.0000000E+02
         1        65         9   1.0000000E+02   1.0000000E+02
         1        65        73   1.0000000E+02   1.0000000E+02
         1        65        74   1.0000000E+02   1.0000000E+02
         1        66         9   1.0000000E+02   1.0000000E+02
         1        66        73   1.0000000E+02   1.0000000E+02
         1        67        10   1.0000000E+02   1.0000000E+02
         1        67        72   1.0000000E+02   1.0000000E+02
         1        68        11   1.0000000E+02   1.0000000E+02
         1        68        71   1.0000000E+02   1.0000000E+02
         1        69        12   1.0000000E+02   1.0000000E+02
         1        69        70   1.0000000E+02   1.0000000E+02
         1        70        13   1.0000000E+02   1.0000000E+02
         1        70        69   1.0000000E+02   1.0000000E+02
         1        71        14   1.0000000E+02   1.0000000E+02
         1        71        68   1.0000000E+02   1.0000000E+02
         1        72        15   1.0000000E+02   1.0000000E+02
         1        72        67   1.0000000E+02   1.0000000E+02
         1        73        16   1.0000000E+02   1.0000000E+02
         1        73        17   1.0000000E+02   1.0000000E+02
         1        73        65   1.0000000E+02   1.0000000E+02
         1        73        66   1.0000000E+02   1.0000000E+02
         1        74        17   1.0000000E+02   1.0000000E+02
         1        74        18   1.0000000E+02   1.0000000E+02
         1        74        64   1.0000000E+02   1.0000000E+02
         1        74        65   1.0000000E+02   1.0000000E+02
         1        75        19   1.0000000E+02   1.0000000E+02
         1        75        63   1.0000000E+02   1.0000000E+02
         1        76        20   1.0000000E+02   1.0000000E+02
         1        76        21   1.0000000E+02   1.0000000E+02
         1        76        61   1.0000000E+02   1.0000000E+02
         1        76        62   1.0000000E+02   1.0000000E+02
         1        77        22   1.0000000E+02   1.0000000E+02
         1        77        23   1.0000000E+02   1.0000000E+02
         1        77        59   1.0000000E+02   1.0000000E+02
         1        77        60   1.0000000E+02   1.0000000E+02
         1        78        24   1.0000000E+02   1.0000000E+02
         1        78        25   1.0000000E+02   1.0000000E+02
         1        78        57   1.0000000E+02   1.0000000E+02
         1        78        58   1.0000000E+02   1.0000000E+02
         1        79        26   1.0000000E+02   1.0000000E+02
         1        79        27   1.0000000E+02   1.0000000E+02
         1        79        28   1.0000000E+02   1.0000000E+02
         1        79        54   1.0000000E+02   1.0000000E+02
         1        79        55   1.0000000E+02   1.0000000E+02
         1        79        56   1.0000000E+02   1.0000000E+02
         1        80        29   1.0000000E+02   1.0000000E+02
         1        80        30   1.0000000E+02   1.0000000E+02
         1        80        31   1.0000000E+02   1.0000000E+02
         1        80        32   1.0000000E+02   1.0000000E+02
         1        80        50   1.0000000E+02   1.0000000E+02
         1        80        51   1.0000000E+02   1.0000000E+02
         1        80        52   1.0000000E+02   1.0000000E+02
         1        80        53   1.0000000E+02   1.0000000E+02
         1        81        33   1.0000000E+02   1.0000000E+02
         1        81        34   1.0000000E+02   1.0000000E+02
         1        81        35   1.0000000E+02   1.0000000E+02
         1        81        36   1.0000000E+02   1.0000000E+02
         1        81        37   1.0000000E+02   1.0000000E+02
         1        81        38   1.0000000E+02   1.0000000E+02
         1        81        39   1.0000000E+02   1.0000000E+02
         1        81        40   1.0000000E+02   1.0000000E+02
         1        81        41   1.0000000E+02   1.0000000E+02
         1        81        42   1.0000000E+02   1.0000000E+02
         1        81        43   1.0000000E+02   1.0000000E+02
         1        81        44   1.0000000E+02   1.0000000E+02
         1        81        45   1.0000000E+02   1.0000000E+02
         1        81        46   1.0000000E+02   1.0000000E+02
         1        81        47   1.0000000E+02   1.0000000E+02
         1        81        48   1.0000000E+02   1.0000000E+02
         1        81        49   1.0000000E+02   1.0000000E+02
        -1         0 # stress period 2
        -1         0 # stress period 3
        -1         0 # stress period 4
        -1         0 # stress period 5
        -1         0 # stress period 6
        -1         0 # stress period 7
        -1         0 # stress period 8
        -1         0 # stress period 9
        -1         0 # stress period 10
        -1         0 # stress period 11
        -1         0 # stress period 12
        -1         0 # stress period 13
        -1         0 # stress period 14
        -1         0 # stress period 15
