# CHD package for  MODFLOW-NWT, generated by Flopy.
        56
        56         0 # stress period 1
         1         1         1   1.0000000E+02   1.0000000E+02
         1         1         2   1.0000000E+02   1.0000000E+02
         1         1         3   1.0000000E+02   1.0000000E+02
         1         1         4   1.0000000E+02   1.0000000E+02
         1         1         5   1.0000000E+02   1.0000000E+02
         1         1         6   1.0000000E+02   1.0000000E+02
         1         1         7   1.0000000E+02   1.0000000E+02
         1         1         8   1.0000000E+02   1.0000000E+02
         1         2         9   1.0000000E+02   1.0000000E+02
         1         2        10   1.0000000E+02   1.0000000E+02
         1         2        11   1.0000000E+02   1.0000000E+02
         1         2        12   1.0000000E+02   1.0000000E+02
         1         3        13   1.0000000E+02   1.0000000E+02
         1         3        14   1.0000000E+02   1.0000000E+02
         1         3        15   1.0000000E+02   1.0000000E+02
         1         4        16   1.0000000E+02   1.0000000E+02
         1         4        17   1.0000000E+02   1.0000000E+02
         1         5        18   1.0000000E+02   1.0000000E+02
         1         5        19   1.0000000E+02   1.0000000E+02
         1         6        20   1.0000000E+02   1.0000000E+02
         1         7        21   1.0000000E+02   1.0000000E+02
         1         7        22   1.0000000E+02   1.0000000E+02
         1         8        23   1.0000000E+02   1.0000000E+02
         1         9        24   1.0000000E+02   1.0000000E+02
         1         9        25   1.0000000E+02   1.0000000E+02
         1        10        26   1.0000000E+02   1.0000000E+02
         1        11        27   1.0000000E+02   1.0000000E+02
         1        12        28   1.0000000E+02   1.0000000E+02
         1        13        29   1.0000000E+02   1.0000000E+02
         1        14        30   1.0000000E+02   1.0000000E+02
         1        15        31   1.0000000E+02   1.0000000E+02
         1        16        32   1.0000000E+02   1.0000000E+02
         1        17        33   1.0000000E+02   1.0000000E+02
         1        18        33   1.0000000E+02   1.0000000E+02
         1        19        34   1.0000000E+02   1.0000000E+02
         1        20        34   1.0000000E+02   1.0000000E+02
         1        21        35   1.0000000E+02   1.0000000E+02
         1        22        36   1.0000000E+02   1.0000000E+02
         1        23        36   1.0000000E+02   1.0000000E+02
         1        24        37   1.0000000E+02   1.0000000E+02
         1        25        37   1.0000000E+02   1.0000000E+02
         1        26        38   1.0000000E+02   1.0000000E+02
         1        27        38   1.0000000E+02   1.0000000E+02
         1        28        38   1.0000000E+02   1.0000000E+02
         1        29        39   1.0000000E+02   1.0000000E+02
         1        30        39   1.0000000E+02   1.0000000E+02
         1        31        39   1.0000000E+02   1.0000000E+02
         1        32        39   1.0000000E+02   1.0000000E+02
         1        33        40   1.0000000E+02   1.0000000E+02
         1        34        40   1.0000000E+02   1.0000000E+02
         1        35        40   1.0000000E+02   1.0000000E+02
         1        36        40   1.0000000E+02   1.0000000E+02
         1        37        40   1.0000000E+02   1.0000000E+02
         1        38        40   1.0000000E+02   1.0000000E+02
         1        39        40   1.0000000E+02   1.0000000E+02
         1        40        40   1.0000000E+02   1.0000000E+02
        -1         0 # stress period 2
        -1         0 # stress period 3
        -1         0 # stress period 4
        -1         0 # stress period 5
        -1         0 # stress period 6
        -1         0 # stress period 7
        -1         0 # stress period 8
        -1         0 # stress period 9
        -1         0 # stress period 10
        -1         0 # stress period 11
        -1         0 # stress period 12
        -1         0 # stress period 13
        -1         0 # stress period 14
        -1         0 # stress period 15
