# CHD package for  MODFLOW-NWT, generated by Flopy.
        51
        51         0 # stress period 1
         1         1        41   1.0000000E+02   1.0000000E+02
         1         1        42   1.0000000E+02   1.0000000E+02
         1         1        43   1.0000000E+02   1.0000000E+02
         1         1        44   1.0000000E+02   1.0000000E+02
         1         1        45   1.0000000E+02   1.0000000E+02
         1         1        46   1.0000000E+02   1.0000000E+02
         1         1        47   1.0000000E+02   1.0000000E+02
         1         1        48   1.0000000E+02   1.0000000E+02
         1         1        49   1.0000000E+02   1.0000000E+02
         1         2        50   1.0000000E+02   1.0000000E+02
         1         2        51   1.0000000E+02   1.0000000E+02
         1         2        52   1.0000000E+02   1.0000000E+02
         1         2        53   1.0000000E+02   1.0000000E+02
         1         3        54   1.0000000E+02   1.0000000E+02
         1         3        55   1.0000000E+02   1.0000000E+02
         1         3        56   1.0000000E+02   1.0000000E+02
         1         4        57   1.0000000E+02   1.0000000E+02
         1         4        58   1.0000000E+02   1.0000000E+02
         1         5        59   1.0000000E+02   1.0000000E+02
         1         5        60   1.0000000E+02   1.0000000E+02
         1         6        61   1.0000000E+02   1.0000000E+02
         1         6        62   1.0000000E+02   1.0000000E+02
         1         7        63   1.0000000E+02   1.0000000E+02
         1         8        64   1.0000000E+02   1.0000000E+02
         1         8        65   1.0000000E+02   1.0000000E+02
         1         9        65   1.0000000E+02   1.0000000E+02
         1         9        66   1.0000000E+02   1.0000000E+02
         1        10        67   1.0000000E+02   1.0000000E+02
         1        11        68   1.0000000E+02   1.0000000E+02
         1        12        69   1.0000000E+02   1.0000000E+02
         1        13        70   1.0000000E+02   1.0000000E+02
         1        14        71   1.0000000E+02   1.0000000E+02
         1        15        72   1.0000000E+02   1.0000000E+02
         1        16        73   1.0000000E+02   1.0000000E+02
         1        17        73   1.0000000E+02   1.0000000E+02
         1        17        74   1.0000000E+02   1.0000000E+02
         1        18        74   1.0000000E+02   1.0000000E+02
         1        19        75   1.0000000E+02   1.0000000E+02
         1        20        76   1.0000000E+02   1.0000000E+02
         1        21        76   1.0000000E+02   1.0000000E+02
         1        22        77   1.0000000E+02   1.0000000E+02
         1        23        77   1.0000000E+02   1.0000000E+02
         1        24        78   1.0000000E+02   1.0000000E+02
         1        25        78   1.0000000E+02   1.0000000E+02
         1        26        79   1.0000000E+02   1.0000000E+02
         1        27        79   1.0000000E+02   1.0000000E+02
         1        28        79   1.0000000E+02   1.0000000E+02
         1        29        80   1.0000000E+02   1.0000000E+02
         1        30        80   1.0000000E+02   1.0000000E+02
         1        31        80   1.0000000E+02   1.0000000E+02
         1        32        80   1.0000000E+02   1.0000000E+02
        -1         0 # stress period 2
        -1         0 # stress period 3
        -1         0 # stress period 4
        -1         0 # stress period 5
        -1         0 # stress period 6
        -1         0 # stress period 7
        -1         0 # stress period 8
        -1         0 # stress period 9
        -1         0 # stress period 10
        -1         0 # stress period 11
        -1         0 # stress period 12
        -1         0 # stress period 13
        -1         0 # stress period 14
        -1         0 # stress period 15
