# CHD package for  MODFLOW-NWT, generated by Flopy.
        56
        56         0 # stress period 1
         1         1        41   1.0000000E+02   1.0000000E+02
         1         1        42   1.0000000E+02   1.0000000E+02
         1         1        43   1.0000000E+02   1.0000000E+02
         1         1        44   1.0000000E+02   1.0000000E+02
         1         1        45   1.0000000E+02   1.0000000E+02
         1         1        46   1.0000000E+02   1.0000000E+02
         1         1        47   1.0000000E+02   1.0000000E+02
         1         1        48   1.0000000E+02   1.0000000E+02
         1         2        49   1.0000000E+02   1.0000000E+02
         1         2        50   1.0000000E+02   1.0000000E+02
         1         2        51   1.0000000E+02   1.0000000E+02
         1         2        52   1.0000000E+02   1.0000000E+02
         1         3        53   1.0000000E+02   1.0000000E+02
         1         3        54   1.0000000E+02   1.0000000E+02
         1         3        55   1.0000000E+02   1.0000000E+02
         1         4        56   1.0000000E+02   1.0000000E+02
         1         4        57   1.0000000E+02   1.0000000E+02
         1         5        58   1.0000000E+02   1.0000000E+02
         1         5        59   1.0000000E+02   1.0000000E+02
         1         6        60   1.0000000E+02   1.0000000E+02
         1         7        61   1.0000000E+02   1.0000000E+02
         1         7        62   1.0000000E+02   1.0000000E+02
         1         8        63   1.0000000E+02   1.0000000E+02
         1         9        64   1.0000000E+02   1.0000000E+02
         1         9        65   1.0000000E+02   1.0000000E+02
         1        10        66   1.0000000E+02   1.0000000E+02
         1        11        67   1.0000000E+02   1.0000000E+02
         1        12        68   1.0000000E+02   1.0000000E+02
         1        13        69   1.0000000E+02   1.0000000E+02
         1        14        70   1.0000000E+02   1.0000000E+02
         1        15        71   1.0000000E+02   1.0000000E+02
         1        16        72   1.0000000E+02   1.0000000E+02
         1        17        73   1.0000000E+02   1.0000000E+02
         1        18        73   1.0000000E+02   1.0000000E+02
         1        19        74   1.0000000E+02   1.0000000E+02
         1        20        74   1.0000000E+02   1.0000000E+02
         1        21        75   1.0000000E+02   1.0000000E+02
         1        22        76   1.0000000E+02   1.0000000E+02
         1        23        76   1.0000000E+02   1.0000000E+02
         1        24        77   1.0000000E+02   1.0000000E+02
         1        25        77   1.0000000E+02   1.0000000E+02
         1        26        78   1.0000000E+02   1.0000000E+02
         1        27        78   1.0000000E+02   1.0000000E+02
         1        28        78   1.0000000E+02   1.0000000E+02
         1        29        79   1.0000000E+02   1.0000000E+02
         1        30        79   1.0000000E+02   1.0000000E+02
         1        31        79   1.0000000E+02   1.0000000E+02
         1        32        79   1.0000000E+02   1.0000000E+02
         1        33        80   1.0000000E+02   1.0000000E+02
         1        34        80   1.0000000E+02   1.0000000E+02
         1        35        80   1.0000000E+02   1.0000000E+02
         1        36        80   1.0000000E+02   1.0000000E+02
         1        37        80   1.0000000E+02   1.0000000E+02
         1        38        80   1.0000000E+02   1.0000000E+02
         1        39        80   1.0000000E+02   1.0000000E+02
         1        40        80   1.0000000E+02   1.0000000E+02
        -1         0 # stress period 2
        -1         0 # stress period 3
        -1         0 # stress period 4
        -1         0 # stress period 5
        -1         0 # stress period 6
        -1         0 # stress period 7
        -1         0 # stress period 8
        -1         0 # stress period 9
        -1         0 # stress period 10
        -1         0 # stress period 11
        -1         0 # stress period 12
        -1         0 # stress period 13
        -1         0 # stress period 14
        -1         0 # stress period 15
