# CHD package for  MODFLOW-NWT, generated by Flopy.
       260
       260         0 # stress period 1
         1         1        41   1.0000000E+02   1.0000000E+02
         1         2        33   1.0000000E+02   1.0000000E+02
         1         2        34   1.0000000E+02   1.0000000E+02
         1         2        35   1.0000000E+02   1.0000000E+02
         1         2        36   1.0000000E+02   1.0000000E+02
         1         2        37   1.0000000E+02   1.0000000E+02
         1         2        38   1.0000000E+02   1.0000000E+02
         1         2        39   1.0000000E+02   1.0000000E+02
         1         2        40   1.0000000E+02   1.0000000E+02
         1         2        41   1.0000000E+02   1.0000000E+02
         1         2        42   1.0000000E+02   1.0000000E+02
         1         2        43   1.0000000E+02   1.0000000E+02
         1         2        44   1.0000000E+02   1.0000000E+02
         1         2        45   1.0000000E+02   1.0000000E+02
         1         2        46   1.0000000E+02   1.0000000E+02
         1         2        47   1.0000000E+02   1.0000000E+02
         1         2        48   1.0000000E+02   1.0000000E+02
         1         2        49   1.0000000E+02   1.0000000E+02
         1         3        29   1.0000000E+02   1.0000000E+02
         1         3        30   1.0000000E+02   1.0000000E+02
         1         3        31   1.0000000E+02   1.0000000E+02
         1         3        32   1.0000000E+02   1.0000000E+02
         1         3        50   1.0000000E+02   1.0000000E+02
         1         3        51   1.0000000E+02   1.0000000E+02
         1         3        52   1.0000000E+02   1.0000000E+02
         1         3        53   1.0000000E+02   1.0000000E+02
         1         4        26   1.0000000E+02   1.0000000E+02
         1         4        27   1.0000000E+02   1.0000000E+02
         1         4        28   1.0000000E+02   1.0000000E+02
         1         4        54   1.0000000E+02   1.0000000E+02
         1         4        55   1.0000000E+02   1.0000000E+02
         1         4        56   1.0000000E+02   1.0000000E+02
         1         5        24   1.0000000E+02   1.0000000E+02
         1         5        25   1.0000000E+02   1.0000000E+02
         1         5        26   1.0000000E+02   1.0000000E+02
         1         5        56   1.0000000E+02   1.0000000E+02
         1         5        57   1.0000000E+02   1.0000000E+02
         1         5        58   1.0000000E+02   1.0000000E+02
         1         6        22   1.0000000E+02   1.0000000E+02
         1         6        23   1.0000000E+02   1.0000000E+02
         1         6        59   1.0000000E+02   1.0000000E+02
         1         6        60   1.0000000E+02   1.0000000E+02
         1         7        20   1.0000000E+02   1.0000000E+02
         1         7        21   1.0000000E+02   1.0000000E+02
         1         7        61   1.0000000E+02   1.0000000E+02
         1         7        62   1.0000000E+02   1.0000000E+02
         1         8        19   1.0000000E+02   1.0000000E+02
         1         8        20   1.0000000E+02   1.0000000E+02
         1         8        62   1.0000000E+02   1.0000000E+02
         1         8        63   1.0000000E+02   1.0000000E+02
         1         9        17   1.0000000E+02   1.0000000E+02
         1         9        18   1.0000000E+02   1.0000000E+02
         1         9        64   1.0000000E+02   1.0000000E+02
         1         9        65   1.0000000E+02   1.0000000E+02
         1        10        16   1.0000000E+02   1.0000000E+02
         1        10        17   1.0000000E+02   1.0000000E+02
         1        10        65   1.0000000E+02   1.0000000E+02
         1        10        66   1.0000000E+02   1.0000000E+02
         1        11        15   1.0000000E+02   1.0000000E+02
         1        11        16   1.0000000E+02   1.0000000E+02
         1        11        66   1.0000000E+02   1.0000000E+02
         1        11        67   1.0000000E+02   1.0000000E+02
         1        12        14   1.0000000E+02   1.0000000E+02
         1        12        68   1.0000000E+02   1.0000000E+02
         1        13        13   1.0000000E+02   1.0000000E+02
         1        13        69   1.0000000E+02   1.0000000E+02
         1        14        12   1.0000000E+02   1.0000000E+02
         1        14        70   1.0000000E+02   1.0000000E+02
         1        15        11   1.0000000E+02   1.0000000E+02
         1        15        71   1.0000000E+02   1.0000000E+02
         1        16        10   1.0000000E+02   1.0000000E+02
         1        16        11   1.0000000E+02   1.0000000E+02
         1        16        71   1.0000000E+02   1.0000000E+02
         1        16        72   1.0000000E+02   1.0000000E+02
         1        17         9   1.0000000E+02   1.0000000E+02
         1        17        10   1.0000000E+02   1.0000000E+02
         1        17        72   1.0000000E+02   1.0000000E+02
         1        17        73   1.0000000E+02   1.0000000E+02
         1        18         9   1.0000000E+02   1.0000000E+02
         1        18        73   1.0000000E+02   1.0000000E+02
         1        19         8   1.0000000E+02   1.0000000E+02
         1        19        74   1.0000000E+02   1.0000000E+02
         1        20         7   1.0000000E+02   1.0000000E+02
         1        20         8   1.0000000E+02   1.0000000E+02
         1        20        74   1.0000000E+02   1.0000000E+02
         1        20        75   1.0000000E+02   1.0000000E+02
         1        21         7   1.0000000E+02   1.0000000E+02
         1        21        75   1.0000000E+02   1.0000000E+02
         1        22         6   1.0000000E+02   1.0000000E+02
         1        22        76   1.0000000E+02   1.0000000E+02
         1        23         6   1.0000000E+02   1.0000000E+02
         1        23        76   1.0000000E+02   1.0000000E+02
         1        24         5   1.0000000E+02   1.0000000E+02
         1        24        77   1.0000000E+02   1.0000000E+02
         1        25         5   1.0000000E+02   1.0000000E+02
         1        25        77   1.0000000E+02   1.0000000E+02
         1        26         4   1.0000000E+02   1.0000000E+02
         1        26         5   1.0000000E+02   1.0000000E+02
         1        26        77   1.0000000E+02   1.0000000E+02
         1        26        78   1.0000000E+02   1.0000000E+02
         1        27         4   1.0000000E+02   1.0000000E+02
         1        27        78   1.0000000E+02   1.0000000E+02
         1        28         4   1.0000000E+02   1.0000000E+02
         1        28        78   1.0000000E+02   1.0000000E+02
         1        29         3   1.0000000E+02   1.0000000E+02
         1        29        79   1.0000000E+02   1.0000000E+02
         1        30         3   1.0000000E+02   1.0000000E+02
         1        30        79   1.0000000E+02   1.0000000E+02
         1        31         3   1.0000000E+02   1.0000000E+02
         1        31        79   1.0000000E+02   1.0000000E+02
         1        32         3   1.0000000E+02   1.0000000E+02
         1        32        79   1.0000000E+02   1.0000000E+02
         1        33         2   1.0000000E+02   1.0000000E+02
         1        33        80   1.0000000E+02   1.0000000E+02
         1        34         2   1.0000000E+02   1.0000000E+02
         1        34        80   1.0000000E+02   1.0000000E+02
         1        35         2   1.0000000E+02   1.0000000E+02
         1        35        80   1.0000000E+02   1.0000000E+02
         1        36         2   1.0000000E+02   1.0000000E+02
         1        36        80   1.0000000E+02   1.0000000E+02
         1        37         2   1.0000000E+02   1.0000000E+02
         1        37        80   1.0000000E+02   1.0000000E+02
         1        38         2   1.0000000E+02   1.0000000E+02
         1        38        80   1.0000000E+02   1.0000000E+02
         1        39         2   1.0000000E+02   1.0000000E+02
         1        39        80   1.0000000E+02   1.0000000E+02
         1        40         2   1.0000000E+02   1.0000000E+02
         1        40        80   1.0000000E+02   1.0000000E+02
         1        41         1   1.0000000E+02   1.0000000E+02
         1        41         2   1.0000000E+02   1.0000000E+02
         1        41        80   1.0000000E+02   1.0000000E+02
         1        41        81   1.0000000E+02   1.0000000E+02
         1        42         2   1.0000000E+02   1.0000000E+02
         1        42        80   1.0000000E+02   1.0000000E+02
         1        43         2   1.0000000E+02   1.0000000E+02
         1        43        80   1.0000000E+02   1.0000000E+02
         1        44         2   1.0000000E+02   1.0000000E+02
         1        44        80   1.0000000E+02   1.0000000E+02
         1        45         2   1.0000000E+02   1.0000000E+02
         1        45        80   1.0000000E+02   1.0000000E+02
         1        46         2   1.0000000E+02   1.0000000E+02
         1        46        80   1.0000000E+02   1.0000000E+02
         1        47         2   1.0000000E+02   1.0000000E+02
         1        47        80   1.0000000E+02   1.0000000E+02
         1        48         2   1.0000000E+02   1.0000000E+02
         1        48        80   1.0000000E+02   1.0000000E+02
         1        49         2   1.0000000E+02   1.0000000E+02
         1        49        80   1.0000000E+02   1.0000000E+02
         1        50         3   1.0000000E+02   1.0000000E+02
         1        50        79   1.0000000E+02   1.0000000E+02
         1        51         3   1.0000000E+02   1.0000000E+02
         1        51        79   1.0000000E+02   1.0000000E+02
         1        52         3   1.0000000E+02   1.0000000E+02
         1        52        79   1.0000000E+02   1.0000000E+02
         1        53         3   1.0000000E+02   1.0000000E+02
         1        53        79   1.0000000E+02   1.0000000E+02
         1        54         4   1.0000000E+02   1.0000000E+02
         1        54        78   1.0000000E+02   1.0000000E+02
         1        55         4   1.0000000E+02   1.0000000E+02
         1        55        78   1.0000000E+02   1.0000000E+02
         1        56         4   1.0000000E+02   1.0000000E+02
         1        56         5   1.0000000E+02   1.0000000E+02
         1        56        77   1.0000000E+02   1.0000000E+02
         1        56        78   1.0000000E+02   1.0000000E+02
         1        57         5   1.0000000E+02   1.0000000E+02
         1        57        77   1.0000000E+02   1.0000000E+02
         1        58         5   1.0000000E+02   1.0000000E+02
         1        58        77   1.0000000E+02   1.0000000E+02
         1        59         6   1.0000000E+02   1.0000000E+02
         1        59        76   1.0000000E+02   1.0000000E+02
         1        60         6   1.0000000E+02   1.0000000E+02
         1        60        76   1.0000000E+02   1.0000000E+02
         1        61         7   1.0000000E+02   1.0000000E+02
         1        61        75   1.0000000E+02   1.0000000E+02
         1        62         7   1.0000000E+02   1.0000000E+02
         1        62         8   1.0000000E+02   1.0000000E+02
         1        62        74   1.0000000E+02   1.0000000E+02
         1        62        75   1.0000000E+02   1.0000000E+02
         1        63         8   1.0000000E+02   1.0000000E+02
         1        63        74   1.0000000E+02   1.0000000E+02
         1        64         9   1.0000000E+02   1.0000000E+02
         1        64        73   1.0000000E+02   1.0000000E+02
         1        65         9   1.0000000E+02   1.0000000E+02
         1        65        10   1.0000000E+02   1.0000000E+02
         1        65        72   1.0000000E+02   1.0000000E+02
         1        65        73   1.0000000E+02   1.0000000E+02
         1        66        10   1.0000000E+02   1.0000000E+02
         1        66        11   1.0000000E+02   1.0000000E+02
         1        66        71   1.0000000E+02   1.0000000E+02
         1        66        72   1.0000000E+02   1.0000000E+02
         1        67        11   1.0000000E+02   1.0000000E+02
         1        67        71   1.0000000E+02   1.0000000E+02
         1        68        12   1.0000000E+02   1.0000000E+02
         1        68        70   1.0000000E+02   1.0000000E+02
         1        69        13   1.0000000E+02   1.0000000E+02
         1        69        69   1.0000000E+02   1.0000000E+02
         1        70        14   1.0000000E+02   1.0000000E+02
         1        70        68   1.0000000E+02   1.0000000E+02
         1        71        15   1.0000000E+02   1.0000000E+02
         1        71        16   1.0000000E+02   1.0000000E+02
         1        71        66   1.0000000E+02   1.0000000E+02
         1        71        67   1.0000000E+02   1.0000000E+02
         1        72        16   1.0000000E+02   1.0000000E+02
         1        72        17   1.0000000E+02   1.0000000E+02
         1        72        65   1.0000000E+02   1.0000000E+02
         1        72        66   1.0000000E+02   1.0000000E+02
         1        73        17   1.0000000E+02   1.0000000E+02
         1        73        18   1.0000000E+02   1.0000000E+02
         1        73        64   1.0000000E+02   1.0000000E+02
         1        73        65   1.0000000E+02   1.0000000E+02
         1        74        19   1.0000000E+02   1.0000000E+02
         1        74        20   1.0000000E+02   1.0000000E+02
         1        74        62   1.0000000E+02   1.0000000E+02
         1        74        63   1.0000000E+02   1.0000000E+02
         1        75        20   1.0000000E+02   1.0000000E+02
         1        75        21   1.0000000E+02   1.0000000E+02
         1        75        61   1.0000000E+02   1.0000000E+02
         1        75        62   1.0000000E+02   1.0000000E+02
         1        76        22   1.0000000E+02   1.0000000E+02
         1        76        23   1.0000000E+02   1.0000000E+02
         1        76        59   1.0000000E+02   1.0000000E+02
         1        76        60   1.0000000E+02   1.0000000E+02
         1        77        24   1.0000000E+02   1.0000000E+02
         1        77        25   1.0000000E+02   1.0000000E+02
         1        77        26   1.0000000E+02   1.0000000E+02
         1        77        56   1.0000000E+02   1.0000000E+02
         1        77        57   1.0000000E+02   1.0000000E+02
         1        77        58   1.0000000E+02   1.0000000E+02
         1        78        26   1.0000000E+02   1.0000000E+02
         1        78        27   1.0000000E+02   1.0000000E+02
         1        78        28   1.0000000E+02   1.0000000E+02
         1        78        54   1.0000000E+02   1.0000000E+02
         1        78        55   1.0000000E+02   1.0000000E+02
         1        78        56   1.0000000E+02   1.0000000E+02
         1        79        29   1.0000000E+02   1.0000000E+02
         1        79        30   1.0000000E+02   1.0000000E+02
         1        79        31   1.0000000E+02   1.0000000E+02
         1        79        32   1.0000000E+02   1.0000000E+02
         1        79        50   1.0000000E+02   1.0000000E+02
         1        79        51   1.0000000E+02   1.0000000E+02
         1        79        52   1.0000000E+02   1.0000000E+02
         1        79        53   1.0000000E+02   1.0000000E+02
         1        80        33   1.0000000E+02   1.0000000E+02
         1        80        34   1.0000000E+02   1.0000000E+02
         1        80        35   1.0000000E+02   1.0000000E+02
         1        80        36   1.0000000E+02   1.0000000E+02
         1        80        37   1.0000000E+02   1.0000000E+02
         1        80        38   1.0000000E+02   1.0000000E+02
         1        80        39   1.0000000E+02   1.0000000E+02
         1        80        40   1.0000000E+02   1.0000000E+02
         1        80        41   1.0000000E+02   1.0000000E+02
         1        80        42   1.0000000E+02   1.0000000E+02
         1        80        43   1.0000000E+02   1.0000000E+02
         1        80        44   1.0000000E+02   1.0000000E+02
         1        80        45   1.0000000E+02   1.0000000E+02
         1        80        46   1.0000000E+02   1.0000000E+02
         1        80        47   1.0000000E+02   1.0000000E+02
         1        80        48   1.0000000E+02   1.0000000E+02
         1        80        49   1.0000000E+02   1.0000000E+02
         1        81        41   1.0000000E+02   1.0000000E+02
        -1         0 # stress period 2
        -1         0 # stress period 3
        -1         0 # stress period 4
        -1         0 # stress period 5
        -1         0 # stress period 6
        -1         0 # stress period 7
        -1         0 # stress period 8
        -1         0 # stress period 9
        -1         0 # stress period 10
