# BAS6 package for  MODFLOW-2000, generated by Flopy.
 FREE
CONSTANT          1                                #ibound layer 1                
        -999.99
CONSTANT    1.000000E+02                           #strt layer 1                  
