MODPATH_TIMESERIES_FILE 6 0                                                     
 2   0.365250000000000E+03
END HEADER
    0     1   0.000000000000000E+00          1     1   0.397000000000000E+04   0.344000000000000E+04   0.750000000000000E+02  1    1   30   25   0.8125000E+00   0.5000000E+00   0.5000000E+00
    0     1   0.000000000000000E+00          2     1   0.396990133642126E+04   0.344313952597603E+04   0.750000000000000E+02  1    1   30   25   0.8118834E+00   0.5196220E+00   0.5000000E+00
    0     1   0.000000000000000E+00          3     1   0.396960573506542E+04   0.344626666167751E+04   0.750000000000000E+02  1    1   30   25   0.8100358E+00   0.5391666E+00   0.5000000E+00
    0     1   0.000000000000000E+00          4     1   0.396911436253600E+04   0.344936906572804E+04   0.750000000000000E+02  1    1   30   25   0.8069648E+00   0.5585567E+00   0.5000000E+00
    0     1   0.000000000000000E+00          5     1   0.396842915805615E+04   0.345243449435756E+04   0.750000000000000E+02  1    1   30   25   0.8026822E+00   0.5777156E+00   0.5000000E+00
    0     1   0.000000000000000E+00          6     1   0.396755282581504E+04   0.345545084971935E+04   0.750000000000000E+02  1    1   30   25   0.7972052E+00   0.5965678E+00   0.5000000E+00
    0     1   0.000000000000000E+00          7     1   0.396648882429395E+04   0.345840622763336E+04   0.750000000000000E+02  1    1   30   25   0.7905552E+00   0.6150389E+00   0.5000000E+00
    0     1   0.000000000000000E+00          8     1   0.396524135262333E+04   0.346128896457702E+04   0.750000000000000E+02  1    1   30   25   0.7827585E+00   0.6330560E+00   0.5000000E+00
    0     1   0.000000000000000E+00          9     1   0.396381533400249E+04   0.346408768370375E+04   0.750000000000000E+02  1    1   30   25   0.7738458E+00   0.6505480E+00   0.5000000E+00
    0     1   0.000000000000000E+00         10     1   0.396221639627498E+04   0.346679133974761E+04   0.750000000000000E+02  1    1   30   25   0.7638525E+00   0.6674459E+00   0.5000000E+00
    0     1   0.000000000000000E+00         11     1   0.396045084971841E+04   0.346938926261291E+04   0.750000000000000E+02  1    1   30   25   0.7528178E+00   0.6836829E+00   0.5000000E+00
    0     1   0.000000000000000E+00         12     1   0.395852566213906E+04   0.347187119948864E+04   0.750000000000000E+02  1    1   30   25   0.7407854E+00   0.6991950E+00   0.5000000E+00
    0     1   0.000000000000000E+00         13     1   0.395644843137078E+04   0.347422735529765E+04   0.750000000000000E+02  1    1   30   25   0.7278027E+00   0.7139210E+00   0.5000000E+00
    0     1   0.000000000000000E+00         14     1   0.395422735529672E+04   0.347644843137264E+04   0.750000000000000E+02  1    1   30   25   0.7139210E+00   0.7278027E+00   0.5000000E+00
    0     1   0.000000000000000E+00         15     1   0.395187119948771E+04   0.347852566213906E+04   0.750000000000000E+02  1    1   30   25   0.6991950E+00   0.7407854E+00   0.5000000E+00
    0     1   0.000000000000000E+00         16     1   0.394938926261477E+04   0.348045084971935E+04   0.750000000000000E+02  1    1   30   25   0.6836829E+00   0.7528178E+00   0.5000000E+00
    0     1   0.000000000000000E+00         17     1   0.394679133974854E+04   0.348221639627591E+04   0.750000000000000E+02  1    1   30   25   0.6674459E+00   0.7638525E+00   0.5000000E+00
    0     1   0.000000000000000E+00         18     1   0.394408768370468E+04   0.348381533400342E+04   0.750000000000000E+02  1    1   30   25   0.6505480E+00   0.7738458E+00   0.5000000E+00
    0     1   0.000000000000000E+00         19     1   0.394128896457795E+04   0.348524135262147E+04   0.750000000000000E+02  1    1   30   25   0.6330560E+00   0.7827585E+00   0.5000000E+00
    0     1   0.000000000000000E+00         20     1   0.393840622763429E+04   0.348648882429302E+04   0.750000000000000E+02  1    1   30   25   0.6150389E+00   0.7905552E+00   0.5000000E+00
    0     1   0.000000000000000E+00         21     1   0.393545084971841E+04   0.348755282581598E+04   0.750000000000000E+02  1    1   30   25   0.5965678E+00   0.7972052E+00   0.5000000E+00
    0     1   0.000000000000000E+00         22     1   0.393243449435849E+04   0.348842915805802E+04   0.750000000000000E+02  1    1   30   25   0.5777156E+00   0.8026822E+00   0.5000000E+00
    0     1   0.000000000000000E+00         23     1   0.392936906572897E+04   0.348911436253786E+04   0.750000000000000E+02  1    1   30   25   0.5585567E+00   0.8069648E+00   0.5000000E+00
    0     1   0.000000000000000E+00         24     1   0.392626666167844E+04   0.348960573506728E+04   0.750000000000000E+02  1    1   30   25   0.5391666E+00   0.8100358E+00   0.5000000E+00
    0     1   0.000000000000000E+00         25     1   0.392313952597603E+04   0.348990133642033E+04   0.750000000000000E+02  1    1   30   25   0.5196220E+00   0.8118834E+00   0.5000000E+00
    0     1   0.000000000000000E+00         26     1   0.392000000000000E+04   0.349000000000000E+04   0.750000000000000E+02  1    1   30   25   0.5000000E+00   0.8125000E+00   0.5000000E+00
    0     1   0.000000000000000E+00         27     1   0.391686047402397E+04   0.348990133642033E+04   0.750000000000000E+02  1    1   30   25   0.4803780E+00   0.8118834E+00   0.5000000E+00
    0     1   0.000000000000000E+00         28     1   0.391373333832156E+04   0.348960573506728E+04   0.750000000000000E+02  1    1   30   25   0.4608334E+00   0.8100358E+00   0.5000000E+00
    0     1   0.000000000000000E+00         29     1   0.391063093427103E+04   0.348911436253786E+04   0.750000000000000E+02  1    1   30   25   0.4414433E+00   0.8069648E+00   0.5000000E+00
    0     1   0.000000000000000E+00         30     1   0.390756550564151E+04   0.348842915805802E+04   0.750000000000000E+02  1    1   30   25   0.4222844E+00   0.8026822E+00   0.5000000E+00
    0     1   0.000000000000000E+00         31     1   0.390454915028159E+04   0.348755282581598E+04   0.750000000000000E+02  1    1   30   25   0.4034322E+00   0.7972052E+00   0.5000000E+00
    0     1   0.000000000000000E+00         32     1   0.390159377236571E+04   0.348648882429302E+04   0.750000000000000E+02  1    1   30   25   0.3849611E+00   0.7905552E+00   0.5000000E+00
    0     1   0.000000000000000E+00         33     1   0.389871103542205E+04   0.348524135262147E+04   0.750000000000000E+02  1    1   30   25   0.3669440E+00   0.7827585E+00   0.5000000E+00
    0     1   0.000000000000000E+00         34     1   0.389591231629532E+04   0.348381533400342E+04   0.750000000000000E+02  1    1   30   25   0.3494520E+00   0.7738458E+00   0.5000000E+00
    0     1   0.000000000000000E+00         35     1   0.389320866025146E+04   0.348221639627591E+04   0.750000000000000E+02  1    1   30   25   0.3325541E+00   0.7638525E+00   0.5000000E+00
    0     1   0.000000000000000E+00         36     1   0.389061073738523E+04   0.348045084971935E+04   0.750000000000000E+02  1    1   30   25   0.3163171E+00   0.7528178E+00   0.5000000E+00
    0     1   0.000000000000000E+00         37     1   0.388812880051229E+04   0.347852566213906E+04   0.750000000000000E+02  1    1   30   25   0.3008050E+00   0.7407854E+00   0.5000000E+00
    0     1   0.000000000000000E+00         38     1   0.388577264470328E+04   0.347644843137264E+04   0.750000000000000E+02  1    1   30   25   0.2860790E+00   0.7278027E+00   0.5000000E+00
    0     1   0.000000000000000E+00         39     1   0.388355156862922E+04   0.347422735529765E+04   0.750000000000000E+02  1    1   30   25   0.2721973E+00   0.7139210E+00   0.5000000E+00
    0     1   0.000000000000000E+00         40     1   0.388147433786094E+04   0.347187119948864E+04   0.750000000000000E+02  1    1   30   25   0.2592146E+00   0.6991950E+00   0.5000000E+00
    0     1   0.000000000000000E+00         41     1   0.387954915028159E+04   0.346938926261291E+04   0.750000000000000E+02  1    1   30   25   0.2471822E+00   0.6836829E+00   0.5000000E+00
    0     1   0.000000000000000E+00         42     1   0.387778360372502E+04   0.346679133974761E+04   0.750000000000000E+02  1    1   30   25   0.2361475E+00   0.6674459E+00   0.5000000E+00
    0     1   0.000000000000000E+00         43     1   0.387618466599751E+04   0.346408768370375E+04   0.750000000000000E+02  1    1   30   25   0.2261542E+00   0.6505480E+00   0.5000000E+00
    0     1   0.000000000000000E+00         44     1   0.387475864737667E+04   0.346128896457702E+04   0.750000000000000E+02  1    1   30   25   0.2172415E+00   0.6330560E+00   0.5000000E+00
    0     1   0.000000000000000E+00         45     1   0.387351117570605E+04   0.345840622763336E+04   0.750000000000000E+02  1    1   30   25   0.2094448E+00   0.6150389E+00   0.5000000E+00
    0     1   0.000000000000000E+00         46     1   0.387244717418496E+04   0.345545084971935E+04   0.750000000000000E+02  1    1   30   25   0.2027948E+00   0.5965678E+00   0.5000000E+00
    0     1   0.000000000000000E+00         47     1   0.387157084194385E+04   0.345243449435756E+04   0.750000000000000E+02  1    1   30   25   0.1973178E+00   0.5777156E+00   0.5000000E+00
    0     1   0.000000000000000E+00         48     1   0.387088563746400E+04   0.344936906572804E+04   0.750000000000000E+02  1    1   30   25   0.1930352E+00   0.5585567E+00   0.5000000E+00
    0     1   0.000000000000000E+00         49     1   0.387039426493458E+04   0.344626666167751E+04   0.750000000000000E+02  1    1   30   25   0.1899642E+00   0.5391666E+00   0.5000000E+00
    0     1   0.000000000000000E+00         50     1   0.387009866357874E+04   0.344313952597603E+04   0.750000000000000E+02  1    1   30   25   0.1881166E+00   0.5196220E+00   0.5000000E+00
    0     1   0.000000000000000E+00         51     1   0.387000000000000E+04   0.344000000000000E+04   0.750000000000000E+02  1    1   30   25   0.1875000E+00   0.5000000E+00   0.5000000E+00
    0     1   0.000000000000000E+00         52     1   0.387009866357874E+04   0.343686047402397E+04   0.750000000000000E+02  1    1   30   25   0.1881166E+00   0.4803780E+00   0.5000000E+00
    0     1   0.000000000000000E+00         53     1   0.387039426493458E+04   0.343373333832249E+04   0.750000000000000E+02  1    1   30   25   0.1899642E+00   0.4608334E+00   0.5000000E+00
    0     1   0.000000000000000E+00         54     1   0.387088563746400E+04   0.343063093427196E+04   0.750000000000000E+02  1    1   30   25   0.1930352E+00   0.4414433E+00   0.5000000E+00
    0     1   0.000000000000000E+00         55     1   0.387157084194385E+04   0.342756550564244E+04   0.750000000000000E+02  1    1   30   25   0.1973178E+00   0.4222844E+00   0.5000000E+00
    0     1   0.000000000000000E+00         56     1   0.387244717418496E+04   0.342454915028065E+04   0.750000000000000E+02  1    1   30   25   0.2027948E+00   0.4034322E+00   0.5000000E+00
    0     1   0.000000000000000E+00         57     1   0.387351117570605E+04   0.342159377236664E+04   0.750000000000000E+02  1    1   30   25   0.2094448E+00   0.3849611E+00   0.5000000E+00
    0     1   0.000000000000000E+00         58     1   0.387475864737667E+04   0.341871103542298E+04   0.750000000000000E+02  1    1   30   25   0.2172415E+00   0.3669440E+00   0.5000000E+00
    0     1   0.000000000000000E+00         59     1   0.387618466599751E+04   0.341591231629625E+04   0.750000000000000E+02  1    1   30   25   0.2261542E+00   0.3494520E+00   0.5000000E+00
    0     1   0.000000000000000E+00         60     1   0.387778360372502E+04   0.341320866025239E+04   0.750000000000000E+02  1    1   30   25   0.2361475E+00   0.3325541E+00   0.5000000E+00
    0     1   0.000000000000000E+00         61     1   0.387954915028159E+04   0.341061073738709E+04   0.750000000000000E+02  1    1   30   25   0.2471822E+00   0.3163171E+00   0.5000000E+00
    0     1   0.000000000000000E+00         62     1   0.388147433786094E+04   0.340812880051136E+04   0.750000000000000E+02  1    1   30   25   0.2592146E+00   0.3008050E+00   0.5000000E+00
    0     1   0.000000000000000E+00         63     1   0.388355156862922E+04   0.340577264470235E+04   0.750000000000000E+02  1    1   30   25   0.2721973E+00   0.2860790E+00   0.5000000E+00
    0     1   0.000000000000000E+00         64     1   0.388577264470328E+04   0.340355156862736E+04   0.750000000000000E+02  1    1   30   25   0.2860790E+00   0.2721973E+00   0.5000000E+00
    0     1   0.000000000000000E+00         65     1   0.388812880051229E+04   0.340147433786094E+04   0.750000000000000E+02  1    1   30   25   0.3008050E+00   0.2592146E+00   0.5000000E+00
    0     1   0.000000000000000E+00         66     1   0.389061073738523E+04   0.339954915028065E+04   0.750000000000000E+02  1    1   30   25   0.3163171E+00   0.2471822E+00   0.5000000E+00
    0     1   0.000000000000000E+00         67     1   0.389320866025146E+04   0.339778360372409E+04   0.750000000000000E+02  1    1   30   25   0.3325541E+00   0.2361475E+00   0.5000000E+00
    0     1   0.000000000000000E+00         68     1   0.389591231629532E+04   0.339618466599658E+04   0.750000000000000E+02  1    1   30   25   0.3494520E+00   0.2261542E+00   0.5000000E+00
    0     1   0.000000000000000E+00         69     1   0.389871103542205E+04   0.339475864737853E+04   0.750000000000000E+02  1    1   30   25   0.3669440E+00   0.2172415E+00   0.5000000E+00
    0     1   0.000000000000000E+00         70     1   0.390159377236571E+04   0.339351117570698E+04   0.750000000000000E+02  1    1   30   25   0.3849611E+00   0.2094448E+00   0.5000000E+00
    0     1   0.000000000000000E+00         71     1   0.390454915028159E+04   0.339244717418402E+04   0.750000000000000E+02  1    1   30   25   0.4034322E+00   0.2027948E+00   0.5000000E+00
    0     1   0.000000000000000E+00         72     1   0.390756550564151E+04   0.339157084194198E+04   0.750000000000000E+02  1    1   30   25   0.4222844E+00   0.1973178E+00   0.5000000E+00
    0     1   0.000000000000000E+00         73     1   0.391063093427103E+04   0.339088563746214E+04   0.750000000000000E+02  1    1   30   25   0.4414433E+00   0.1930352E+00   0.5000000E+00
    0     1   0.000000000000000E+00         74     1   0.391373333832156E+04   0.339039426493272E+04   0.750000000000000E+02  1    1   30   25   0.4608334E+00   0.1899642E+00   0.5000000E+00
    0     1   0.000000000000000E+00         75     1   0.391686047402397E+04   0.339009866357967E+04   0.750000000000000E+02  1    1   30   25   0.4803780E+00   0.1881166E+00   0.5000000E+00
    0     1   0.000000000000000E+00         76     1   0.392000000000000E+04   0.339000000000000E+04   0.750000000000000E+02  1    1   30   25   0.5000000E+00   0.1875000E+00   0.5000000E+00
    0     1   0.000000000000000E+00         77     1   0.392313952597603E+04   0.339009866357967E+04   0.750000000000000E+02  1    1   30   25   0.5196220E+00   0.1881166E+00   0.5000000E+00
    0     1   0.000000000000000E+00         78     1   0.392626666167844E+04   0.339039426493272E+04   0.750000000000000E+02  1    1   30   25   0.5391666E+00   0.1899642E+00   0.5000000E+00
    0     1   0.000000000000000E+00         79     1   0.392936906572897E+04   0.339088563746214E+04   0.750000000000000E+02  1    1   30   25   0.5585567E+00   0.1930352E+00   0.5000000E+00
    0     1   0.000000000000000E+00         80     1   0.393243449435849E+04   0.339157084194198E+04   0.750000000000000E+02  1    1   30   25   0.5777156E+00   0.1973178E+00   0.5000000E+00
    0     1   0.000000000000000E+00         81     1   0.393545084971841E+04   0.339244717418402E+04   0.750000000000000E+02  1    1   30   25   0.5965678E+00   0.2027948E+00   0.5000000E+00
    0     1   0.000000000000000E+00         82     1   0.393840622763429E+04   0.339351117570698E+04   0.750000000000000E+02  1    1   30   25   0.6150389E+00   0.2094448E+00   0.5000000E+00
    0     1   0.000000000000000E+00         83     1   0.394128896457795E+04   0.339475864737853E+04   0.750000000000000E+02  1    1   30   25   0.6330560E+00   0.2172415E+00   0.5000000E+00
    0     1   0.000000000000000E+00         84     1   0.394408768370468E+04   0.339618466599658E+04   0.750000000000000E+02  1    1   30   25   0.6505480E+00   0.2261542E+00   0.5000000E+00
    0     1   0.000000000000000E+00         85     1   0.394679133974854E+04   0.339778360372409E+04   0.750000000000000E+02  1    1   30   25   0.6674459E+00   0.2361475E+00   0.5000000E+00
    0     1   0.000000000000000E+00         86     1   0.394938926261477E+04   0.339954915028065E+04   0.750000000000000E+02  1    1   30   25   0.6836829E+00   0.2471822E+00   0.5000000E+00
    0     1   0.000000000000000E+00         87     1   0.395187119948771E+04   0.340147433786094E+04   0.750000000000000E+02  1    1   30   25   0.6991950E+00   0.2592146E+00   0.5000000E+00
    0     1   0.000000000000000E+00         88     1   0.395422735529672E+04   0.340355156862736E+04   0.750000000000000E+02  1    1   30   25   0.7139210E+00   0.2721973E+00   0.5000000E+00
    0     1   0.000000000000000E+00         89     1   0.395644843137078E+04   0.340577264470235E+04   0.750000000000000E+02  1    1   30   25   0.7278027E+00   0.2860790E+00   0.5000000E+00
    0     1   0.000000000000000E+00         90     1   0.395852566213906E+04   0.340812880051136E+04   0.750000000000000E+02  1    1   30   25   0.7407854E+00   0.3008050E+00   0.5000000E+00
    0     1   0.000000000000000E+00         91     1   0.396045084971841E+04   0.341061073738709E+04   0.750000000000000E+02  1    1   30   25   0.7528178E+00   0.3163171E+00   0.5000000E+00
    0     1   0.000000000000000E+00         92     1   0.396221639627498E+04   0.341320866025239E+04   0.750000000000000E+02  1    1   30   25   0.7638525E+00   0.3325541E+00   0.5000000E+00
    0     1   0.000000000000000E+00         93     1   0.396381533400249E+04   0.341591231629625E+04   0.750000000000000E+02  1    1   30   25   0.7738458E+00   0.3494520E+00   0.5000000E+00
    0     1   0.000000000000000E+00         94     1   0.396524135262333E+04   0.341871103542298E+04   0.750000000000000E+02  1    1   30   25   0.7827585E+00   0.3669440E+00   0.5000000E+00
    0     1   0.000000000000000E+00         95     1   0.396648882429395E+04   0.342159377236664E+04   0.750000000000000E+02  1    1   30   25   0.7905552E+00   0.3849611E+00   0.5000000E+00
    0     1   0.000000000000000E+00         96     1   0.396755282581504E+04   0.342454915028065E+04   0.750000000000000E+02  1    1   30   25   0.7972052E+00   0.4034322E+00   0.5000000E+00
    0     1   0.000000000000000E+00         97     1   0.396842915805615E+04   0.342756550564244E+04   0.750000000000000E+02  1    1   30   25   0.8026822E+00   0.4222844E+00   0.5000000E+00
    0     1   0.000000000000000E+00         98     1   0.396911436253600E+04   0.343063093427196E+04   0.750000000000000E+02  1    1   30   25   0.8069648E+00   0.4414433E+00   0.5000000E+00
    0     1   0.000000000000000E+00         99     1   0.396960573506542E+04   0.343373333832249E+04   0.750000000000000E+02  1    1   30   25   0.8100358E+00   0.4608334E+00   0.5000000E+00
    0     1   0.000000000000000E+00        100     1   0.396990133642126E+04   0.343686047402397E+04   0.750000000000000E+02  1    1   30   25   0.8118834E+00   0.4803780E+00   0.5000000E+00
    1     1   0.365200000000000E+03          1     1   0.449347149157332E+04   0.359020373738272E+04   0.750000000000000E+02  1    1   29   29   0.8419682E-01   0.4387734E+00   0.5000000E+00
    1     1   0.365200000000000E+03          2     1   0.448717614989000E+04   0.361348544921035E+04   0.750000000000000E+02  1    1   29   29   0.4485094E-01   0.5842841E+00   0.5000000E+00
    1     1   0.365200000000000E+03          3     1   0.448115126284316E+04   0.363693021654007E+04   0.750000000000000E+02  1    1   29   29   0.7195393E-02   0.7308139E+00   0.5000000E+00
    1     1   0.365200000000000E+03          4     1   0.447385335607315E+04   0.365896965134460E+04   0.750000000000000E+02  1    1   29   28   0.9615835E+00   0.8685603E+00   0.5000000E+00
    1     1   0.365200000000000E+03          5     1   0.446540392560024E+04   0.368031053451065E+04   0.750000000000000E+02  1    1   28   28   0.9087745E+00   0.1940841E-02   0.5000000E+00
    1     1   0.365200000000000E+03          6     1   0.445069267210147E+04   0.370104870230443E+04   0.750000000000000E+02  1    1   28   28   0.8168292E+00   0.1315544E+00   0.5000000E+00
    1     1   0.365200000000000E+03          7     1   0.443772272594027E+04   0.372443743236231E+04   0.750000000000000E+02  1    1   28   28   0.7357670E+00   0.2777340E+00   0.5000000E+00
    1     1   0.365200000000000E+03          8     1   0.442307688522374E+04   0.374775247546006E+04   0.750000000000000E+02  1    1   28   28   0.6442305E+00   0.4234530E+00   0.5000000E+00
    1     1   0.365200000000000E+03          9     1   0.440741396557180E+04   0.377194827702706E+04   0.750000000000000E+02  1    1   28   28   0.5463373E+00   0.5746767E+00   0.5000000E+00
    1     1   0.365200000000000E+03         10     1   0.439069565786997E+04   0.379742552546771E+04   0.750000000000000E+02  1    1   28   28   0.4418479E+00   0.7339095E+00   0.5000000E+00
    1     1   0.365200000000000E+03         11     1   0.437062696001997E+04   0.382259369627561E+04   0.750000000000000E+02  1    1   28   28   0.3164185E+00   0.8912106E+00   0.5000000E+00
    1     1   0.365200000000000E+03         12     1   0.434455138446988E+04   0.384742647962459E+04   0.750000000000000E+02  1    1   27   28   0.1534462E+00   0.4641550E-01   0.5000000E+00
    1     1   0.365200000000000E+03         13     1   0.431120963488474E+04   0.387243403066780E+04   0.750000000000000E+02  1    1   27   27   0.9450602E+00   0.2027127E+00   0.5000000E+00
    1     1   0.365200000000000E+03         14     1   0.428325995587782E+04   0.390210582076234E+04   0.750000000000000E+02  1    1   27   27   0.7703747E+00   0.3881614E+00   0.5000000E+00
    1     1   0.365200000000000E+03         15     1   0.425674540437151E+04   0.392830717448032E+04   0.750000000000000E+02  1    1   27   27   0.6046588E+00   0.5519198E+00   0.5000000E+00
    1     1   0.365200000000000E+03         16     1   0.423025228710838E+04   0.394944066261002E+04   0.750000000000000E+02  1    1   27   27   0.4390768E+00   0.6840041E+00   0.5000000E+00
    1     1   0.365200000000000E+03         17     1   0.420631955043620E+04   0.397042170985263E+04   0.750000000000000E+02  1    1   27   27   0.2894972E+00   0.8151357E+00   0.5000000E+00
    1     1   0.365200000000000E+03         18     1   0.418245054092453E+04   0.398808271534947E+04   0.750000000000000E+02  1    1   27   27   0.1403159E+00   0.9255170E+00   0.5000000E+00
    1     1   0.365200000000000E+03         19     1   0.415789503761729E+04   0.400170363905591E+04   0.750000000000000E+02  1    1   26   26   0.9868440E+00   0.1064774E-01   0.5000000E+00
    1     1   0.365200000000000E+03         20     1   0.413379558402487E+04   0.400976625983388E+04   0.750000000000000E+02  1    1   26   26   0.8362224E+00   0.6103912E-01   0.5000000E+00
    1     1   0.365200000000000E+03         21     1   0.411159290368391E+04   0.402062169093627E+04   0.750000000000000E+02  1    1   26   26   0.6974556E+00   0.1288856E+00   0.5000000E+00
    1     1   0.365200000000000E+03         22     1   0.408939627293466E+04   0.402981650664803E+04   0.750000000000000E+02  1    1   26   26   0.5587267E+00   0.1863532E+00   0.5000000E+00
    1     1   0.365200000000000E+03         23     1   0.406695875838737E+04   0.403697497028672E+04   0.750000000000000E+02  1    1   26   26   0.4184922E+00   0.2310936E+00   0.5000000E+00
    1     1   0.365200000000000E+03         24     1   0.404515097998387E+04   0.404522488062815E+04   0.750000000000000E+02  1    1   26   26   0.2821936E+00   0.2826555E+00   0.5000000E+00
    1     1   0.365200000000000E+03         25     1   0.402301440352137E+04   0.405206471138818E+04   0.750000000000000E+02  1    1   26   26   0.1438400E+00   0.3254044E+00   0.5000000E+00
    1     1   0.365200000000000E+03         26     1   0.400041593115442E+04   0.405735978767595E+04   0.750000000000000E+02  1    1   26   26   0.2599570E-02   0.3584987E+00   0.5000000E+00
    1     1   0.365200000000000E+03         27     1   0.397766331178862E+04   0.405741759256867E+04   0.750000000000000E+02  1    1   26   25   0.8603957E+00   0.3588600E+00   0.5000000E+00
    1     1   0.365200000000000E+03         28     1   0.395479504519120E+04   0.405731852116960E+04   0.750000000000000E+02  1    1   26   25   0.7174690E+00   0.3582408E+00   0.5000000E+00
    1     1   0.365200000000000E+03         29     1   0.393165322498425E+04   0.405715259901461E+04   0.750000000000000E+02  1    1   26   25   0.5728327E+00   0.3572037E+00   0.5000000E+00
    1     1   0.365200000000000E+03         30     1   0.390807166876332E+04   0.405691859675781E+04   0.750000000000000E+02  1    1   26   25   0.4254479E+00   0.3557412E+00   0.5000000E+00
    1     1   0.365200000000000E+03         31     1   0.388387085165994E+04   0.405661474249291E+04   0.750000000000000E+02  1    1   26   25   0.2741928E+00   0.3538421E+00   0.5000000E+00
    1     1   0.365200000000000E+03         32     1   0.385885185729071E+04   0.405623866704292E+04   0.750000000000000E+02  1    1   26   25   0.1178241E+00   0.3514917E+00   0.5000000E+00
    1     1   0.365200000000000E+03         33     1   0.383031547314495E+04   0.402847948427511E+04   0.750000000000000E+02  1    1   26   24   0.9394717E+00   0.1779968E+00   0.5000000E+00
    1     1   0.365200000000000E+03         34     1   0.380046607543553E+04   0.400751790761132E+04   0.750000000000000E+02  1    1   26   24   0.7529130E+00   0.4698692E-01   0.5000000E+00
    1     1   0.365200000000000E+03         35     1   0.377094773683526E+04   0.399354224013426E+04   0.750000000000000E+02  1    1   27   24   0.5684234E+00   0.9596390E+00   0.5000000E+00
    1     1   0.365200000000000E+03         36     1   0.374068766377530E+04   0.398351485491765E+04   0.750000000000000E+02  1    1   27   24   0.3792979E+00   0.8969678E+00   0.5000000E+00
    1     1   0.365200000000000E+03         37     1   0.370920737989799E+04   0.397085328301619E+04   0.750000000000000E+02  1    1   27   24   0.1825461E+00   0.8178330E+00   0.5000000E+00
    1     1   0.365200000000000E+03         38     1   0.367637814787963E+04   0.395208868455748E+04   0.750000000000000E+02  1    1   27   23   0.9773634E+00   0.7005543E+00   0.5000000E+00
    1     1   0.365200000000000E+03         39     1   0.364119926011717E+04   0.390606406738472E+04   0.750000000000000E+02  1    1   27   23   0.7574954E+00   0.4129004E+00   0.5000000E+00
    1     1   0.365200000000000E+03         40     1   0.360145552381386E+04   0.387245317938819E+04   0.750000000000000E+02  1    1   27   23   0.5090970E+00   0.2028324E+00   0.5000000E+00
    1     1   0.365200000000000E+03         41     1   0.356597130816618E+04   0.384508793659457E+04   0.750000000000000E+02  1    1   27   23   0.2873207E+00   0.3179960E-01   0.5000000E+00
    1     1   0.365200000000000E+03         42     1   0.353690887615928E+04   0.382545666848103E+04   0.750000000000000E+02  1    1   28   23   0.1056805E+00   0.9091042E+00   0.5000000E+00
    1     1   0.365200000000000E+03         43     1   0.351328132060894E+04   0.380180443625304E+04   0.750000000000000E+02  1    1   28   22   0.9580083E+00   0.7612777E+00   0.5000000E+00
    1     1   0.365200000000000E+03         44     1   0.349328168232692E+04   0.376999576645331E+04   0.750000000000000E+02  1    1   28   22   0.8330105E+00   0.5624735E+00   0.5000000E+00
    1     1   0.365200000000000E+03         45     1   0.347643491880461E+04   0.373717773406278E+04   0.750000000000000E+02  1    1   28   22   0.7277182E+00   0.3573608E+00   0.5000000E+00
    1     1   0.365200000000000E+03         46     1   0.345786518492721E+04   0.370852090771119E+04   0.750000000000000E+02  1    1   28   22   0.6116574E+00   0.1782557E+00   0.5000000E+00
    1     1   0.365200000000000E+03         47     1   0.343826404759249E+04   0.368264550276010E+04   0.750000000000000E+02  1    1   28   22   0.4891503E+00   0.1653439E-01   0.5000000E+00
    1     1   0.365200000000000E+03         48     1   0.342654293453149E+04   0.365815247752861E+04   0.750000000000000E+02  1    1   29   22   0.4158933E+00   0.8634530E+00   0.5000000E+00
    1     1   0.365200000000000E+03         49     1   0.341680595859869E+04   0.363299793595095E+04   0.750000000000000E+02  1    1   29   22   0.3550372E+00   0.7062371E+00   0.5000000E+00
    1     1   0.365200000000000E+03         50     1   0.340822359830904E+04   0.360684258441635E+04   0.750000000000000E+02  1    1   29   22   0.3013975E+00   0.5427662E+00   0.5000000E+00
    1     1   0.365200000000000E+03         51     1   0.340014680381792E+04   0.357995573127581E+04   0.750000000000000E+02  1    1   29   22   0.2509175E+00   0.3747233E+00   0.5000000E+00
    1     1   0.365200000000000E+03         52     1   0.338988925793862E+04   0.355381176815753E+04   0.750000000000000E+02  1    1   29   22   0.1868079E+00   0.2113236E+00   0.5000000E+00
    1     1   0.365200000000000E+03         53     1   0.338058177599547E+04   0.352594709171846E+04   0.750000000000000E+02  1    1   29   22   0.1286361E+00   0.3716932E-01   0.5000000E+00
    1     1   0.365200000000000E+03         54     1   0.337897775438555E+04   0.349642655744499E+04   0.750000000000000E+02  1    1   30   22   0.1186110E+00   0.8526660E+00   0.5000000E+00
    1     1   0.365200000000000E+03         55     1   0.337917867171474E+04   0.346626433910963E+04   0.750000000000000E+02  1    1   30   22   0.1198667E+00   0.6641521E+00   0.5000000E+00
    1     1   0.365200000000000E+03         56     1   0.337944018371154E+04   0.343523250666943E+04   0.750000000000000E+02  1    1   30   22   0.1215011E+00   0.4702032E+00   0.5000000E+00