# CHD package for  MODFLOW-2000, generated by Flopy.
       102
       102         0 # stress period 1
         1         1         1   1.0000000E+02   1.0000000E+02
         1         1        51   1.0000000E+02   1.0000000E+02
         1         2         1   9.9199997E+01   9.9199997E+01
         1         2        51   9.9199997E+01   9.9199997E+01
         1         3         1   9.8400002E+01   9.8400002E+01
         1         3        51   9.8400002E+01   9.8400002E+01
         1         4         1   9.7599998E+01   9.7599998E+01
         1         4        51   9.7599998E+01   9.7599998E+01
         1         5         1   9.6800003E+01   9.6800003E+01
         1         5        51   9.6800003E+01   9.6800003E+01
         1         6         1   9.6000000E+01   9.6000000E+01
         1         6        51   9.6000000E+01   9.6000000E+01
         1         7         1   9.5199997E+01   9.5199997E+01
         1         7        51   9.5199997E+01   9.5199997E+01
         1         8         1   9.4400002E+01   9.4400002E+01
         1         8        51   9.4400002E+01   9.4400002E+01
         1         9         1   9.3599998E+01   9.3599998E+01
         1         9        51   9.3599998E+01   9.3599998E+01
         1        10         1   9.2800003E+01   9.2800003E+01
         1        10        51   9.2800003E+01   9.2800003E+01
         1        11         1   9.2000000E+01   9.2000000E+01
         1        11        51   9.2000000E+01   9.2000000E+01
         1        12         1   9.1199997E+01   9.1199997E+01
         1        12        51   9.1199997E+01   9.1199997E+01
         1        13         1   9.0400002E+01   9.0400002E+01
         1        13        51   9.0400002E+01   9.0400002E+01
         1        14         1   8.9599998E+01   8.9599998E+01
         1        14        51   8.9599998E+01   8.9599998E+01
         1        15         1   8.8800003E+01   8.8800003E+01
         1        15        51   8.8800003E+01   8.8800003E+01
         1        16         1   8.8000000E+01   8.8000000E+01
         1        16        51   8.8000000E+01   8.8000000E+01
         1        17         1   8.7199997E+01   8.7199997E+01
         1        17        51   8.7199997E+01   8.7199997E+01
         1        18         1   8.6400002E+01   8.6400002E+01
         1        18        51   8.6400002E+01   8.6400002E+01
         1        19         1   8.5599998E+01   8.5599998E+01
         1        19        51   8.5599998E+01   8.5599998E+01
         1        20         1   8.4800003E+01   8.4800003E+01
         1        20        51   8.4800003E+01   8.4800003E+01
         1        21         1   8.4000000E+01   8.4000000E+01
         1        21        51   8.4000000E+01   8.4000000E+01
         1        22         1   8.3199997E+01   8.3199997E+01
         1        22        51   8.3199997E+01   8.3199997E+01
         1        23         1   8.2400002E+01   8.2400002E+01
         1        23        51   8.2400002E+01   8.2400002E+01
         1        24         1   8.1599998E+01   8.1599998E+01
         1        24        51   8.1599998E+01   8.1599998E+01
         1        25         1   8.0800003E+01   8.0800003E+01
         1        25        51   8.0800003E+01   8.0800003E+01
         1        26         1   8.0000000E+01   8.0000000E+01
         1        26        51   8.0000000E+01   8.0000000E+01
         1        27         1   7.9199997E+01   7.9199997E+01
         1        27        51   7.9199997E+01   7.9199997E+01
         1        28         1   7.8400002E+01   7.8400002E+01
         1        28        51   7.8400002E+01   7.8400002E+01
         1        29         1   7.7599998E+01   7.7599998E+01
         1        29        51   7.7599998E+01   7.7599998E+01
         1        30         1   7.6800003E+01   7.6800003E+01
         1        30        51   7.6800003E+01   7.6800003E+01
         1        31         1   7.6000000E+01   7.6000000E+01
         1        31        51   7.6000000E+01   7.6000000E+01
         1        32         1   7.5199997E+01   7.5199997E+01
         1        32        51   7.5199997E+01   7.5199997E+01
         1        33         1   7.4400002E+01   7.4400002E+01
         1        33        51   7.4400002E+01   7.4400002E+01
         1        34         1   7.3599998E+01   7.3599998E+01
         1        34        51   7.3599998E+01   7.3599998E+01
         1        35         1   7.2800003E+01   7.2800003E+01
         1        35        51   7.2800003E+01   7.2800003E+01
         1        36         1   7.2000000E+01   7.2000000E+01
         1        36        51   7.2000000E+01   7.2000000E+01
         1        37         1   7.1199997E+01   7.1199997E+01
         1        37        51   7.1199997E+01   7.1199997E+01
         1        38         1   7.0400002E+01   7.0400002E+01
         1        38        51   7.0400002E+01   7.0400002E+01
         1        39         1   6.9599998E+01   6.9599998E+01
         1        39        51   6.9599998E+01   6.9599998E+01
         1        40         1   6.8800003E+01   6.8800003E+01
         1        40        51   6.8800003E+01   6.8800003E+01
         1        41         1   6.8000000E+01   6.8000000E+01
         1        41        51   6.8000000E+01   6.8000000E+01
         1        42         1   6.7199997E+01   6.7199997E+01
         1        42        51   6.7199997E+01   6.7199997E+01
         1        43         1   6.6400002E+01   6.6400002E+01
         1        43        51   6.6400002E+01   6.6400002E+01
         1        44         1   6.5599998E+01   6.5599998E+01
         1        44        51   6.5599998E+01   6.5599998E+01
         1        45         1   6.4800003E+01   6.4800003E+01
         1        45        51   6.4800003E+01   6.4800003E+01
         1        46         1   6.4000000E+01   6.4000000E+01
         1        46        51   6.4000000E+01   6.4000000E+01
         1        47         1   6.3200001E+01   6.3200001E+01
         1        47        51   6.3200001E+01   6.3200001E+01
         1        48         1   6.2400002E+01   6.2400002E+01
         1        48        51   6.2400002E+01   6.2400002E+01
         1        49         1   6.1599998E+01   6.1599998E+01
         1        49        51   6.1599998E+01   6.1599998E+01
         1        50         1   6.0799999E+01   6.0799999E+01
         1        50        51   6.0799999E+01   6.0799999E+01
         1        51         1   6.0000000E+01   6.0000000E+01
         1        51        51   6.0000000E+01   6.0000000E+01
        -1         0 # stress period 2
        -1         0 # stress period 3
        -1         0 # stress period 4
        -1         0 # stress period 5
        -1         0 # stress period 6
        -1         0 # stress period 7
        -1         0 # stress period 8
        -1         0 # stress period 9
        -1         0 # stress period 10
