# WEL package for  MODFLOW-2000, generated by Flopy.
         4        53
         4         0 # stress period 1
         1        11        16  -3.8500000E+04
         1        19        41  -7.7000000E+04
         1        30        25  -9.6250000E+04
         1        43        19  -5.7750000E+04
         4         0 # stress period 2
         1        11        16  -3.8500000E+04
         1        19        41  -7.7000000E+04
         1        30        25  -9.6250000E+04
         1        43        19  -5.7750000E+04
         4         0 # stress period 3
         1        11        16  -3.8500000E+04
         1        19        41  -7.7000000E+04
         1        30        25  -9.6250000E+04
         1        43        19  -5.7750000E+04
         4         0 # stress period 4
         1        11        16  -3.8500000E+04
         1        19        41  -7.7000000E+04
         1        30        25  -9.6250000E+04
         1        43        19  -5.7750000E+04
         4         0 # stress period 5
         1        11        16  -3.8500000E+04
         1        19        41  -7.7000000E+04
         1        30        25  -9.6250000E+04
         1        43        19  -5.7750000E+04
         4         0 # stress period 6
         1        11        16  -3.8500000E+04
         1        19        41  -7.7000000E+04
         1        30        25  -9.6250000E+04
         1        43        19  -5.7750000E+04
         4         0 # stress period 7
         1        11        16  -3.8500000E+04
         1        19        41  -7.7000000E+04
         1        30        25  -9.6250000E+04
         1        43        19  -5.7750000E+04
         4         0 # stress period 8
         1        11        16  -3.8500000E+04
         1        19        41  -7.7000000E+04
         1        30        25  -9.6250000E+04
         1        43        19  -5.7750000E+04
         4         0 # stress period 9
         1        11        16  -3.8500000E+04
         1        19        41  -7.7000000E+04
         1        30        25  -9.6250000E+04
         1        43        19  -5.7750000E+04
         4         0 # stress period 10
         1        11        16  -3.8500000E+04
         1        19        41  -7.7000000E+04
         1        30        25  -9.6250000E+04
         1        43        19  -5.7750000E+04
