
MODPATH - Version 6.0.01  August 24, 2012                 
U.S. GEOLOGICAL SURVEY PARTICLE TRACKING MODEL FOR MODFLOW

Simulation File: test_1.mpsim                                                                                                                                                                                            
 ## MPSIM for Modpath, generated by Flopy.
 ##
  
--------------------------------------------
Allocating and reading data for grid  1
--------------------------------------------

 OPENING test_1.mpbas
 FILE TYPE:MPBAS   UNIT   86   STATUS:OLD    
 FORMAT:FORMATTED              ACCESS:SEQUENTIAL          

 OPENING test_1.dis
 FILE TYPE:DIS   UNIT   11   STATUS:OLD    
 FORMAT:FORMATTED              ACCESS:SEQUENTIAL          

 OPENING test_1.hds
 FILE TYPE:HEAD   UNIT   88   STATUS:OLD    
 FORMAT:UNFORMATTED            ACCESS:STREAM              

 OPENING test_1.cbc
 FILE TYPE:BUDGET   UNIT   89   STATUS:OLD    
 FORMAT:UNFORMATTED            ACCESS:STREAM              

 DISCRETIZATION INPUT DATA READ FROM UNIT   11
 # DIS package for  MODFLOW-2000, generated by Flopy.
    1 LAYERS       400 ROWS       400 COLUMNS
   10 STRESS PERIOD(S) IN SIMULATION
 MODEL TIME UNIT IS DAYS
 MODEL LENGTH UNIT IS METERS
  Confining bed flag for each layer:
   0

                     DELR =   100.000    

                     DELC =   100.000    

 TOP ELEVATION OF LAYER 1 =   200.000    

   MODEL LAYER BOTTOM EL. =   0.00000     FOR LAYER   1


 STRESS PERIOD     LENGTH       TIME STEPS     MULTIPLIER FOR DELT    SS FLAG
 ----------------------------------------------------------------------------
        1         1.000000          1                    1.000         SS
        2         1.000000          1                    1.000         SS
        3         1.000000          1                    1.000         SS
        4         1.000000          1                    1.000         SS
        5         1.000000          1                    1.000         SS
        6         1.000000          1                    1.000         SS
        7         1.000000          1                    1.000         SS
        8         1.000000          1                    1.000         SS
        9         1.000000          1                    1.000         SS
       10         1.000000          1                    1.000         SS

 STEADY-STATE SIMULATION
 
 ## MPBAS for Modpath, generated by Flopy.                                       
 ##                                                                              

 AQUIFER HEAD IS SET TO *********** AT ALL NO-FLOW NODES (IBOUND=0).
 AQUIFER HEAD IS SET TO -8888.0     AT ALL DRY NODES.
 
 
 LAYER TYPE(LAYTYP)
  0



                     BOUNDARY ARRAY FOR LAYER   1
 READING ON UNIT   86 WITH FORMAT:            (400I10) 

                 POROSITY =  0.300000     FOR LAYER   1
 
 CHECKING THE HEAD FILE FOR GRID   1
 Single Precision Binary Head file
 READ HEAD FOR PERIOD     1 STEP     1  PERTIM =   1.000000E+00  TOTIM =   1.000000E+00
 READ HEAD FOR PERIOD     2 STEP     1  PERTIM =   1.000000E+00  TOTIM =   2.000000E+00
 READ HEAD FOR PERIOD     3 STEP     1  PERTIM =   1.000000E+00  TOTIM =   3.000000E+00
 READ HEAD FOR PERIOD     4 STEP     1  PERTIM =   1.000000E+00  TOTIM =   4.000000E+00
 READ HEAD FOR PERIOD     5 STEP     1  PERTIM =   1.000000E+00  TOTIM =   5.000000E+00
 READ HEAD FOR PERIOD     6 STEP     1  PERTIM =   1.000000E+00  TOTIM =   6.000000E+00
 READ HEAD FOR PERIOD     7 STEP     1  PERTIM =   1.000000E+00  TOTIM =   7.000000E+00
 READ HEAD FOR PERIOD     8 STEP     1  PERTIM =   1.000000E+00  TOTIM =   8.000000E+00
 READ HEAD FOR PERIOD     9 STEP     1  PERTIM =   1.000000E+00  TOTIM =   9.000000E+00
 READ HEAD FOR PERIOD    10 STEP     1  PERTIM =   1.000000E+00  TOTIM =   1.000000E+01
 THE HEAD FILE FOR GRID   1 IS COMPLETE.
 
 CHECKING AND INDEXING BUDGET FILE FOR GRID   1
 Index position =          1
 READ FLOW PACKAGE BUDGET DATA FOR STRESS PERIOD    1 , TIME STEP    1 ...
 Single Precision Binary Budget file
 Reading    CONSTANT HEAD for Period    1   Time Step    1
 Reading FLOW RIGHT FACE  for Period    1   Time Step    1
 Reading FLOW FRONT FACE  for Period    1   Time Step    1
   FLOW RATES BETWEEN CELLS HAVE BEEN READ
 Reading            WELLS for Period    1   Time Step    1
 Index position =    1286629
 READ FLOW PACKAGE BUDGET DATA FOR STRESS PERIOD    2 , TIME STEP    1 ...
 Reading    CONSTANT HEAD for Period    2   Time Step    1
 Reading FLOW RIGHT FACE  for Period    2   Time Step    1
 Reading FLOW FRONT FACE  for Period    2   Time Step    1
   FLOW RATES BETWEEN CELLS HAVE BEEN READ
 Reading            WELLS for Period    2   Time Step    1
 Index position =    2573257
 READ FLOW PACKAGE BUDGET DATA FOR STRESS PERIOD    3 , TIME STEP    1 ...
 Reading    CONSTANT HEAD for Period    3   Time Step    1
 Reading FLOW RIGHT FACE  for Period    3   Time Step    1
 Reading FLOW FRONT FACE  for Period    3   Time Step    1
   FLOW RATES BETWEEN CELLS HAVE BEEN READ
 Reading            WELLS for Period    3   Time Step    1
 Index position =    3859885
 READ FLOW PACKAGE BUDGET DATA FOR STRESS PERIOD    4 , TIME STEP    1 ...
 Reading    CONSTANT HEAD for Period    4   Time Step    1
 Reading FLOW RIGHT FACE  for Period    4   Time Step    1
 Reading FLOW FRONT FACE  for Period    4   Time Step    1
   FLOW RATES BETWEEN CELLS HAVE BEEN READ
 Reading            WELLS for Period    4   Time Step    1
 Index position =    5146513
 READ FLOW PACKAGE BUDGET DATA FOR STRESS PERIOD    5 , TIME STEP    1 ...
 Reading    CONSTANT HEAD for Period    5   Time Step    1
 Reading FLOW RIGHT FACE  for Period    5   Time Step    1
 Reading FLOW FRONT FACE  for Period    5   Time Step    1
   FLOW RATES BETWEEN CELLS HAVE BEEN READ
 Reading            WELLS for Period    5   Time Step    1
 Index position =    6433141
 READ FLOW PACKAGE BUDGET DATA FOR STRESS PERIOD    6 , TIME STEP    1 ...
 Reading    CONSTANT HEAD for Period    6   Time Step    1
 Reading FLOW RIGHT FACE  for Period    6   Time Step    1
 Reading FLOW FRONT FACE  for Period    6   Time Step    1
   FLOW RATES BETWEEN CELLS HAVE BEEN READ
 Reading            WELLS for Period    6   Time Step    1
 Index position =    7719769
 READ FLOW PACKAGE BUDGET DATA FOR STRESS PERIOD    7 , TIME STEP    1 ...
 Reading    CONSTANT HEAD for Period    7   Time Step    1
 Reading FLOW RIGHT FACE  for Period    7   Time Step    1
 Reading FLOW FRONT FACE  for Period    7   Time Step    1
   FLOW RATES BETWEEN CELLS HAVE BEEN READ
 Reading            WELLS for Period    7   Time Step    1
 Index position =    9006397
 READ FLOW PACKAGE BUDGET DATA FOR STRESS PERIOD    8 , TIME STEP    1 ...
 Reading    CONSTANT HEAD for Period    8   Time Step    1
 Reading FLOW RIGHT FACE  for Period    8   Time Step    1
 Reading FLOW FRONT FACE  for Period    8   Time Step    1
   FLOW RATES BETWEEN CELLS HAVE BEEN READ
 Reading            WELLS for Period    8   Time Step    1
 Index position =   10293025
 READ FLOW PACKAGE BUDGET DATA FOR STRESS PERIOD    9 , TIME STEP    1 ...
 Reading    CONSTANT HEAD for Period    9   Time Step    1
 Reading FLOW RIGHT FACE  for Period    9   Time Step    1
 Reading FLOW FRONT FACE  for Period    9   Time Step    1
   FLOW RATES BETWEEN CELLS HAVE BEEN READ
 Reading            WELLS for Period    9   Time Step    1
 Index position =   11579653
 READ FLOW PACKAGE BUDGET DATA FOR STRESS PERIOD   10 , TIME STEP    1 ...
 Reading    CONSTANT HEAD for Period   10   Time Step    1
 Reading FLOW RIGHT FACE  for Period   10   Time Step    1
 Reading FLOW FRONT FACE  for Period   10   Time Step    1
   FLOW RATES BETWEEN CELLS HAVE BEEN READ
 Reading            WELLS for Period   10   Time Step    1
 THE BUDGET INDEX FOR GRID   1 WAS SUCCESSFULLY CREATED.
 
PATHLINE ANALYSIS (ISIMTYPE = 2)
BACKWARD TRACKING (ITRACKDIR = 2)
STOP PARTICLES WHEN THEY ENTER WEAK SINK CELLS. (ISINK = 2)
LET PARTICLES PASS THROUGH WEAK SOURCE CELLS FOR BACKTRACKING SIMULATIONS (ISOURCE = 1)
DO NOT SAVE ADVECTIVE OBSERVATIONS FOR TIME SERIES SIMULATIONS (IADVOBS =  1)
 
PARTICLE OUTPUT FILES:
ENDPOINT FILE:  test_1.mpend                                                                                                                                                                                            
PATHLINE FILE:  test_1.mppth                                                                                                                                                                                            
 
REFERENCE TIME CALCULATED FOR: KPER =     1  KSTP =     1  RELATIVE POSITION WITHIN TIME STEP = 0.0000000
COMPUTED REFERENCE TIME =   0.0000000E+00
EXTEND INITIAL OR FINAL STEADY-STATE TIMESTEP AND CONTINUE TRACKING (ISTOPT =  2)
 Particle starting locations will be read from file:                                                                                                                                                     starting_pts.loc                                                                                                                                                                                        
   Starting locations file format option (ISLFOPT) =                                                                                                                                                        1
 
TOTAL NUMBER OF PARTICLES FOR ALL GROUPS =         20
 
     1Time points will be read from a list.
    0.10000E+01
 
DO NOT PERFORM BUDGET CHECKS (IBDOPT =  1)
 
THE ZONE VALUE FOR ALL CELLS = 1
 
NO RETARDATION. FACTOR = 1 FOR ALL CELLS
 
 
 Run particle tracking simulation ...
 
 ----------------------------------------------------------------------------------------------
Processing Time Step     1 Period     1.  Time =  1.00000E+00                                                                         (Cumulative step =      1)
 ----------------------------------------------------------------------------------------------
 PROCESSING HEAD AND BUDGET DATA FOR GRID   1
 READ HEAD FOR PERIOD     1 STEP     1  PERTIM =   1.000000E+00  TOTIM =   1.000000E+00
 UPDATE IBOUND FOR NO-FLOW AND DRY CELLS.
 PROCESS FLOW PACKAGE BUDGET DATA FOR STRESS PERIOD    1 , TIME STEP    1 ...
 Reading    CONSTANT HEAD for Period    1   Time Step    1
 Reading FLOW RIGHT FACE  for Period    1   Time Step    1
 Reading FLOW FRONT FACE  for Period    1   Time Step    1
 Reading            WELLS for Period    1   Time Step    1
      IFACE values will be read from a compact budget list.
 
Particle summary:
-----------------
         0 particles remain active
        20 particles terminated in zone    1
         0 particles were stranded
 
Default real number precision =         15
Heads input from single-precision head file.
Flows input from single-precision compact budget file.
 
End of MODPATH simulation. Normal termination.
