@ [ MODPATH 6.0 (TREF=   0.000000E+00 ) ] 
                  1       0.200000000000000E+03       0.510000000000000E+02       0.5000000E+00       0.500000000000000E+02       0.000000000000000E+00       40        2        1         1
                  2       0.195960000000000E+03       0.855900000000000E+02       0.5000000E+00       0.500000000000000E+02       0.000000000000000E+00       40        2        1         1
                  3       0.184040000000000E+03       0.118320000000000E+03       0.5000000E+00       0.500000000000000E+02       0.000000000000000E+00       39        2        1         1
                  4       0.164910000000000E+03       0.147420000000000E+03       0.5000000E+00       0.500000000000000E+02       0.000000000000000E+00       39        2        1         1
                  5       0.139570000000000E+03       0.171320000000000E+03       0.5000000E+00       0.500000000000000E+02       0.000000000000000E+00       39        2        1         1
                  6       0.109410000000000E+03       0.188730000000000E+03       0.5000000E+00       0.500000000000000E+02       0.000000000000000E+00       39        2        1         1
                  7       0.760500000000000E+02       0.198720000000000E+03       0.5000000E+00       0.500000000000000E+02       0.000000000000000E+00       39        1        1         1
                  8       0.412800000000000E+02       0.200750000000000E+03       0.5000000E+00       0.500000000000000E+02       0.000000000000000E+00       39        1        1         1
                  9       0.698000000000000E+01       0.194700000000000E+03       0.5000000E+00       0.500000000000000E+02       0.000000000000000E+00       39        1        1         1
                 10       0.195960000000000E+03       0.164100000000000E+02       0.5000000E+00       0.500000000000000E+02       0.000000000000000E+00       40        2        1         1
                  1       0.200000000000000E+03       0.510000000000000E+02       0.5000000E+00       0.500000000000000E+02       0.000000000000000E+00       40        2        1         2
                  1       0.200000000000000E+03       0.510000000000000E+02       0.5000000E+00       0.500000000000000E+02       0.000000000000000E+00       40        3        1         2
                  1       0.300000000000000E+03       0.736415403374137E+02       0.5000000E+00       0.500000000000000E+02       0.296409741493247E+02       40        4        1         2
                  1       0.400000000000000E+03       0.972885182374161E+02       0.5000000E+00       0.500000000000000E+02       0.706779608589338E+02       40        5        1         2
                  1       0.413699701083936E+03       0.100000000000000E+03       0.5000000E+00       0.500000000000000E+02       0.772502067837939E+02       39        5        1         2
                  1       0.500000000000000E+03       0.123167943440789E+03       0.5000000E+00       0.500000000000000E+02       0.128556262812683E+03       39        6        1         2
                  1       0.600000000000000E+03       0.148145090847799E+03       0.5000000E+00       0.500000000000000E+02       0.197851343788860E+03       39        7        1         2
                  1       0.700000000000000E+03       0.172618395162358E+03       0.5000000E+00       0.500000000000000E+02       0.278108433640698E+03       39        8        1         2
                  1       0.800000000000000E+03       0.196878578995282E+03       0.5000000E+00       0.500000000000000E+02       0.369581774205190E+03       39        9        1         2
                  1       0.814214980025160E+03       0.200000000000000E+03       0.5000000E+00       0.500000000000000E+02       0.383524164891892E+03       38        9        1         2
                  1       0.900000000000000E+03       0.222088321251602E+03       0.5000000E+00       0.500000000000000E+02       0.477342755822876E+03       38       10        1         2
                  1       0.919677418315134E+03       0.226637594445817E+03       0.5000000E+00       0.500000000000000E+02       0.500000000000000E+03       38       10        1         2
                  2       0.195960000000000E+03       0.855900000000000E+02       0.5000000E+00       0.500000000000000E+02       0.000000000000000E+00       40        2        1         2
                  2       0.200000000000000E+03       0.878504877784132E+02       0.5000000E+00       0.500000000000000E+02       0.989154821770948E+00       40        3        1         2
                  2       0.239516250298573E+03       0.100000000000000E+03       0.5000000E+00       0.500000000000000E+02       0.114401062407811E+02       39        3        1         2
                  2       0.300000000000000E+03       0.133602277472118E+03       0.5000000E+00       0.500000000000000E+02       0.371651785608864E+02       39        4        1         2
                  2       0.400000000000000E+03       0.177080443915916E+03       0.5000000E+00       0.500000000000000E+02       0.862783129528577E+02       39        5        1         2
                  2       0.459548352624981E+03       0.200000000000000E+03       0.5000000E+00       0.500000000000000E+02       0.120042212774655E+03       38        5        1         2
                  2       0.500000000000000E+03       0.221367041671005E+03       0.5000000E+00       0.500000000000000E+02       0.149309640927881E+03       38        6        1         2
                  2       0.600000000000000E+03       0.266028761536219E+03       0.5000000E+00       0.500000000000000E+02       0.227755293235138E+03       38        7        1         2
                  2       0.681470569362759E+03       0.300000000000000E+03       0.5000000E+00       0.500000000000000E+02       0.298635554544141E+03       37        7        1         2
                  2       0.700000000000000E+03       0.309604769606531E+03       0.5000000E+00       0.500000000000000E+02       0.317644269414681E+03       37        8        1         2
                  2       0.800000000000000E+03       0.354756307964610E+03       0.5000000E+00       0.500000000000000E+02       0.425459738405049E+03       37        9        1         2
                  2       0.864556283970190E+03       0.381912541331675E+03       0.5000000E+00       0.500000000000000E+02       0.500000000000000E+03       37        9        1         2
                  3       0.184040000000000E+03       0.118320000000000E+03       0.5000000E+00       0.500000000000000E+02       0.000000000000000E+00       39        2        1         2
                  3       0.200000000000000E+03       0.134280031542094E+03       0.5000000E+00       0.500000000000000E+02       0.605608208059242E+01       39        3        1         2
                  3       0.300000000000000E+03       0.196049307120902E+03       0.5000000E+00       0.500000000000000E+02       0.472496088572204E+02       39        4        1         2
                  3       0.308341478839146E+03       0.200000000000000E+03       0.5000000E+00       0.500000000000000E+02       0.510152017643452E+02       38        4        1         2
                  3       0.400000000000000E+03       0.264161749971226E+03       0.5000000E+00       0.500000000000000E+02       0.109387828553143E+03       38        5        1         2
                  3       0.462003756460990E+03       0.300000000000000E+03       0.5000000E+00       0.500000000000000E+02       0.151869943267246E+03       37        5        1         2
                  3       0.500000000000000E+03       0.329312025461066E+03       0.5000000E+00       0.500000000000000E+02       0.185132211756470E+03       37        6        1         2
                  3       0.600000000000000E+03       0.393764848812456E+03       0.5000000E+00       0.500000000000000E+02       0.276865839923902E+03       37        7        1         2
                  3       0.611204464322543E+03       0.400000000000000E+03       0.5000000E+00       0.500000000000000E+02       0.287581722594609E+03       36        7        1         2
                  3       0.700000000000000E+03       0.460724310435579E+03       0.5000000E+00       0.500000000000000E+02       0.389068224866174E+03       36        8        1         2
                  3       0.764195450497863E+03       0.500000000000000E+03       0.5000000E+00       0.500000000000000E+02       0.465655845043308E+03       35        8        1         2
                  3       0.789093450038250E+03       0.518046557020439E+03       0.5000000E+00       0.500000000000000E+02       0.500000000000000E+03       35        8        1         2
                  4       0.164910000000000E+03       0.147420000000000E+03       0.5000000E+00       0.500000000000000E+02       0.000000000000000E+00       39        2        1         2
                  4       0.200000000000000E+03       0.182510069349128E+03       0.5000000E+00       0.500000000000000E+02       0.133150325944855E+02       39        3        1         2
                  4       0.228039754898049E+03       0.200000000000000E+03       0.5000000E+00       0.500000000000000E+02       0.241905054651927E+02       38        3        1         2
                  4       0.300000000000000E+03       0.271960693981774E+03       0.5000000E+00       0.500000000000000E+02       0.679669758519551E+02       38        4        1         2
                  4       0.338700247704242E+03       0.300000000000000E+03       0.5000000E+00       0.500000000000000E+02       0.918903600824366E+02       37        4        1         2
                  4       0.400000000000000E+03       0.361300539769692E+03       0.5000000E+00       0.500000000000000E+02       0.143360996774964E+03       37        5        1         2
                  4       0.449427117041641E+03       0.400000000000000E+03       0.5000000E+00       0.500000000000000E+02       0.185388280331754E+03       36        5        1         2
                  4       0.500000000000000E+03       0.450573995224494E+03       0.5000000E+00       0.500000000000000E+02       0.239624495666387E+03       36        6        1         2
                  4       0.560192046861171E+03       0.500000000000000E+03       0.5000000E+00       0.500000000000000E+02       0.304846565873092E+03       35        6        1         2
                  4       0.600000000000000E+03       0.539809294417629E+03       0.5000000E+00       0.500000000000000E+02       0.356839101824410E+03       35        7        1         2
                  4       0.670979299273968E+03       0.600000000000000E+03       0.5000000E+00       0.500000000000000E+02       0.450357334648923E+03       34        7        1         2
                  4       0.700000000000000E+03       0.629022093951051E+03       0.5000000E+00       0.500000000000000E+02       0.495056940491115E+03       34        8        1         2
                  4       0.703208264570314E+03       0.631766400702997E+03       0.5000000E+00       0.500000000000000E+02       0.500000000000000E+03       34        8        1         2
                  5       0.139570000000000E+03       0.171320000000000E+03       0.5000000E+00       0.500000000000000E+02       0.000000000000000E+00       39        2        1         2
                  5       0.168249943319206E+03       0.200000000000000E+03       0.5000000E+00       0.500000000000000E+02       0.108827124566322E+02       38        2        1         2
                  5       0.200000000000000E+03       0.250902019358310E+03       0.5000000E+00       0.500000000000000E+02       0.309936331761188E+02       38        3        1         2
                  5       0.249097674375982E+03       0.300000000000000E+03       0.5000000E+00       0.500000000000000E+02       0.608618317256650E+02       37        3        1         2
                  5       0.300000000000000E+03       0.370257664164472E+03       0.5000000E+00       0.500000000000000E+02       0.104878273830366E+03       37        4        1         2
                  5       0.329741953761988E+03       0.400000000000000E+03       0.5000000E+00       0.500000000000000E+02       0.129851250706737E+03       36        4        1         2
                  5       0.400000000000000E+03       0.489737394776912E+03       0.5000000E+00       0.500000000000000E+02       0.206954749312652E+03       36        5        1         2
                  5       0.410262379519182E+03       0.500000000000000E+03       0.5000000E+00       0.500000000000000E+02       0.217960501662312E+03       35        5        1         2
                  5       0.492102724548116E+03       0.600000000000000E+03       0.5000000E+00       0.500000000000000E+02       0.327066731116645E+03       34        5        1         2
                  5       0.500000000000000E+03       0.611281853059638E+03       0.5000000E+00       0.500000000000000E+02       0.339627577842039E+03       34        6        1         2
                  5       0.574888989533787E+03       0.700000000000000E+03       0.5000000E+00       0.500000000000000E+02       0.457097117569157E+03       33        6        1         2
                  5       0.598386495059340E+03       0.731851326838751E+03       0.5000000E+00       0.500000000000000E+02       0.500000000000000E+03       33        6        1         2
                  6       0.109410000000000E+03       0.188730000000000E+03       0.5000000E+00       0.500000000000000E+02       0.000000000000000E+00       39        2        1         2
                  6       0.120679977726899E+03       0.200000000000000E+03       0.5000000E+00       0.500000000000000E+02       0.427643547371843E+01       38        2        1         2
                  6       0.179983499211740E+03       0.300000000000000E+03       0.5000000E+00       0.500000000000000E+02       0.454697424073264E+02       37        2        1         2
                  6       0.200000000000000E+03       0.342263468053222E+03       0.5000000E+00       0.500000000000000E+02       0.651260150019765E+02       37        3        1         2
                  6       0.240415130971610E+03       0.400000000000000E+03       0.5000000E+00       0.500000000000000E+02       0.102424827642102E+03       36        3        1         2
                  6       0.298002684485358E+03       0.500000000000000E+03       0.5000000E+00       0.500000000000000E+02       0.172435079943490E+03       35        3        1         2
                  6       0.300000000000000E+03       0.504128219670507E+03       0.5000000E+00       0.500000000000000E+02       0.175499514006669E+03       35        4        1         2
                  6       0.359629578364007E+03       0.600000000000000E+03       0.5000000E+00       0.500000000000000E+02       0.263575266277483E+03       34        4        1         2
                  6       0.400000000000000E+03       0.672549636504762E+03       0.5000000E+00       0.500000000000000E+02       0.334714223900797E+03       34        5        1         2
                  6       0.418770938914006E+03       0.700000000000000E+03       0.5000000E+00       0.500000000000000E+02       0.366596728964935E+03       33        5        1         2
                  6       0.478677364369712E+03       0.800000000000000E+03       0.5000000E+00       0.500000000000000E+02       0.487228193165229E+03       32        5        1         2
                  6       0.484143039692196E+03       0.810232713767793E+03       0.5000000E+00       0.500000000000000E+02       0.500000000000000E+03       32        5        1         2
                  7       0.760500000000000E+02       0.198720000000000E+03       0.5000000E+00       0.500000000000000E+02       0.000000000000000E+00       39        1        1         2
                  7       0.766863630861617E+02       0.200000000000000E+03       0.5000000E+00       0.500000000000000E+02       0.316194206755387E+00       38        1        1         2
                  7       0.100000000000000E+03       0.275828043753753E+03       0.5000000E+00       0.500000000000000E+02       0.217328246228377E+02       38        2        1         2
                  7       0.113428793220355E+03       0.300000000000000E+03       0.5000000E+00       0.500000000000000E+02       0.323367604503332E+02       37        2        1         2
                  7       0.152790217638182E+03       0.400000000000000E+03       0.5000000E+00       0.500000000000000E+02       0.814494560090181E+02       36        2        1         2
                  7       0.189627360377694E+03       0.500000000000000E+03       0.5000000E+00       0.500000000000000E+02       0.140230019912266E+03       35        2        1         2
                  7       0.200000000000000E+03       0.531982182231350E+03       0.5000000E+00       0.500000000000000E+02       0.161244111279885E+03       35        3        1         2
                  7       0.228588186583223E+03       0.600000000000000E+03       0.5000000E+00       0.500000000000000E+02       0.215575958942018E+03       34        3        1         2
                  7       0.266751163252216E+03       0.700000000000000E+03       0.5000000E+00       0.500000000000000E+02       0.303511195443632E+03       33        3        1         2
                  7       0.300000000000000E+03       0.790703193311241E+03       0.5000000E+00       0.500000000000000E+02       0.392013491475414E+03       33        4        1         2
                  7       0.304118873176390E+03       0.800000000000000E+03       0.5000000E+00       0.500000000000000E+02       0.402427970952152E+03       32        4        1         2
                  7       0.336351218597530E+03       0.883830860640234E+03       0.5000000E+00       0.500000000000000E+02       0.500000000000000E+03       32        4        1         2
                  8       0.412800000000000E+02       0.200750000000000E+03       0.5000000E+00       0.500000000000000E+02       0.000000000000000E+00       39        1        1         2
                  8       0.410776064149042E+02       0.200000000000000E+03       0.5000000E+00       0.500000000000000E+02      -0.186501686273653E+00       38        1        1         2
                  8       0.593139050425768E+02       0.300000000000000E+03       0.5000000E+00       0.500000000000000E+02       0.294543555732080E+02       37        1        1         2
                  8       0.783598199980659E+02       0.400000000000000E+03       0.5000000E+00       0.500000000000000E+02       0.704910347416160E+02       36        1        1         2
                  8       0.976955666621455E+02       0.500000000000000E+03       0.5000000E+00       0.500000000000000E+02       0.123220559557165E+03       35        1        1         2
                  8       0.100000000000000E+03       0.513886747097278E+03       0.5000000E+00       0.500000000000000E+02       0.131509091995299E+03       35        2        1         2
                  8       0.118157221230844E+03       0.600000000000000E+03       0.5000000E+00       0.500000000000000E+02       0.191799698176029E+03       34        2        1         2
                  8       0.138190062513594E+03       0.700000000000000E+03       0.5000000E+00       0.500000000000000E+02       0.272054641267784E+03       33        2        1         2
                  8       0.157933005996925E+03       0.800000000000000E+03       0.5000000E+00       0.500000000000000E+02       0.363524782717805E+03       32        2        1         2
                  8       0.177533109838388E+03       0.900000000000000E+03       0.5000000E+00       0.500000000000000E+02       0.466363666362160E+03       31        2        1         2
                  8       0.183076823316925E+03       0.930476358086034E+03       0.5000000E+00       0.500000000000000E+02       0.500000000000000E+03       31        2        1         2
                  9       0.698000000000000E+01       0.194700000000000E+03       0.5000000E+00       0.500000000000000E+02       0.000000000000000E+00       39        1        1         2
                  9       0.722183941495588E+01       0.200000000000000E+03       0.5000000E+00       0.500000000000000E+02       0.129244875093287E+01       38        1        1         2
                  9       0.104279566088839E+02       0.300000000000000E+03       0.5000000E+00       0.500000000000000E+02       0.309333060104145E+02       37        1        1         2
                  9       0.137764121622616E+02       0.400000000000000E+03       0.5000000E+00       0.500000000000000E+02       0.719699851788226E+02       36        1        1         2
                  9       0.171758229255330E+02       0.500000000000000E+03       0.5000000E+00       0.500000000000000E+02       0.124699509994371E+03       35        1        1         2
                  9       0.205931488706048E+02       0.600000000000000E+03       0.5000000E+00       0.500000000000000E+02       0.189210149570406E+03       34        1        1         2
                  9       0.240171464351019E+02       0.700000000000000E+03       0.5000000E+00       0.500000000000000E+02       0.265523571648534E+03       33        1        1         2
                  9       0.274438993012076E+02       0.800000000000000E+03       0.5000000E+00       0.500000000000000E+02       0.353642377478035E+03       32        1        1         2
                  9       0.308719393971232E+02       0.900000000000000E+03       0.5000000E+00       0.500000000000000E+02       0.453564362001742E+03       31        1        1         2
                  9       0.322533242333436E+02       0.942845975842010E+03       0.5000000E+00       0.500000000000000E+02       0.500000000000000E+03       31        1        1         2
                 10       0.195960000000000E+03       0.164100000000000E+02       0.5000000E+00       0.500000000000000E+02       0.000000000000000E+00       40        2        1         2
                 10       0.200000000000000E+03       0.168433988134567E+02       0.5000000E+00       0.500000000000000E+02       0.989154821770948E+00       40        3        1         2
                 10       0.300000000000000E+03       0.243210555517710E+02       0.5000000E+00       0.500000000000000E+02       0.306301289710957E+02       40        4        1         2
                 10       0.400000000000000E+03       0.321307708361383E+02       0.5000000E+00       0.500000000000000E+02       0.716671156807047E+02       40        5        1         2
                 10       0.500000000000000E+03       0.400594440424118E+02       0.5000000E+00       0.500000000000000E+02       0.124397291055356E+03       40        6        1         2
                 10       0.600000000000000E+03       0.480300429377245E+02       0.5000000E+00       0.500000000000000E+02       0.188909108237297E+03       40        7        1         2
                 10       0.700000000000000E+03       0.560163696596725E+02       0.5000000E+00       0.500000000000000E+02       0.265224463634387E+03       40        8        1         2
                 10       0.800000000000000E+03       0.640093147009134E+02       0.5000000E+00       0.500000000000000E+02       0.353346230096995E+03       40        9        1         2
                 10       0.900000000000000E+03       0.720054721834868E+02       0.5000000E+00       0.500000000000000E+02       0.453272494780632E+03       40       10        1         2
                 10       0.943107287396370E+03       0.752482613353939E+02       0.5000000E+00       0.500000000000000E+02       0.500000000000000E+03       40       10        1         2
                  1       0.919677418315134E+03       0.226637594445817E+03       0.5000000E+00       0.500000000000000E+02       0.500000000000000E+03       38       10        1         3
                  1       0.100000000000000E+04       0.246985948705358E+03       0.5000000E+00       0.500000000000000E+02       0.596792469879860E+03       38       11        1         3
                  1       0.110000000000000E+04       0.271582304720423E+03       0.5000000E+00       0.500000000000000E+02       0.727264762402153E+03       38       12        1         3
                  1       0.120000000000000E+04       0.295994707928602E+03       0.5000000E+00       0.500000000000000E+02       0.868901092589482E+03       38       13        1         3
                  1       0.121752699446375E+04       0.300000000000000E+03       0.5000000E+00       0.500000000000000E+02       0.894897105317739E+03       37       13        1         3
                  1       0.128375236436525E+04       0.316669635945613E+03       0.5000000E+00       0.500000000000000E+02       0.100000000000000E+04       37       13        1         3
                  2       0.864556283970190E+03       0.381912541331675E+03       0.5000000E+00       0.500000000000000E+02       0.500000000000000E+03       37        9        1         3
                  2       0.900000000000000E+03       0.398106502415013E+03       0.5000000E+00       0.500000000000000E+02       0.542654677805399E+03       37       10        1         3
                  2       0.904823840611530E+03       0.400000000000000E+03       0.5000000E+00       0.500000000000000E+02       0.548558985282043E+03       36       10        1         3
                  2       0.100000000000000E+04       0.443373953799782E+03       0.5000000E+00       0.500000000000000E+02       0.679358781446570E+03       36       11        1         3
                  2       0.110000000000000E+04       0.487229256985455E+03       0.5000000E+00       0.500000000000000E+02       0.825873070160842E+03       36       12        1         3
                  2       0.113114258926008E+04       0.500000000000000E+03       0.5000000E+00       0.500000000000000E+02       0.873479074303962E+03       35       12        1         3
                  2       0.120000000000000E+04       0.531936071955151E+03       0.5000000E+00       0.500000000000000E+02       0.989180029332641E+03       35       13        1         3
                  2       0.120630852664328E+04       0.534588819478040E+03       0.5000000E+00       0.500000000000000E+02       0.100000000000000E+04       35       13        1         3
                  3       0.789093450038250E+03       0.518046557020439E+03       0.5000000E+00       0.500000000000000E+02       0.500000000000000E+03       35        8        1         3
                  3       0.800000000000000E+03       0.526064863848762E+03       0.5000000E+00       0.500000000000000E+02       0.515151648009820E+03       35        9        1         3
                  3       0.900000000000000E+03       0.591177553354986E+03       0.5000000E+00       0.500000000000000E+02       0.657698669788868E+03       35       10        1         3
                  3       0.914964268032967E+03       0.600000000000000E+03       0.5000000E+00       0.500000000000000E+02       0.679625665924403E+03       34       10        1         3
                  3       0.100000000000000E+04       0.657671965049335E+03       0.5000000E+00       0.500000000000000E+02       0.820144760845507E+03       34       11        1         3
                  3       0.106751518386966E+04       0.700000000000000E+03       0.5000000E+00       0.500000000000000E+02       0.935121529889046E+03       33       11        1         3
                  3       0.110000000000000E+04       0.723062691016978E+03       0.5000000E+00       0.500000000000000E+02       0.996585010646039E+03       33       12        1         3
                  3       0.110179532348722E+04       0.724197974577240E+03       0.5000000E+00       0.500000000000000E+02       0.100000000000000E+04       33       12        1         3
                  4       0.703208264570314E+03       0.631766400702997E+03       0.5000000E+00       0.500000000000000E+02       0.500000000000000E+03       34        8        1         3
                  4       0.781779664691892E+03       0.700000000000000E+03       0.5000000E+00       0.500000000000000E+02       0.621975326830641E+03       33        8        1         3
                  4       0.800000000000000E+03       0.718221528748538E+03       0.5000000E+00       0.500000000000000E+02       0.654312693981476E+03       33        9        1         3
                  4       0.892587263836760E+03       0.800000000000000E+03       0.5000000E+00       0.500000000000000E+02       0.819734181248506E+03       32        9        1         3
                  4       0.900000000000000E+03       0.807413377451841E+03       0.5000000E+00       0.500000000000000E+02       0.834630503236629E+03       32       10        1         3
                  4       0.981904853183456E+03       0.880572237438360E+03       0.5000000E+00       0.500000000000000E+02       0.100000000000000E+04       32       10        1         3
                  5       0.598386495059340E+03       0.731851326838751E+03       0.5000000E+00       0.500000000000000E+02       0.500000000000000E+03       33        6        1         3
                  5       0.600000000000000E+03       0.734009908523680E+03       0.5000000E+00       0.500000000000000E+02       0.502926738676226E+03       33        7        1         3
                  5       0.657103785382953E+03       0.800000000000000E+03       0.5000000E+00       0.500000000000000E+02       0.605830427945896E+03       32        7        1         3
                  5       0.700000000000000E+03       0.855844842678057E+03       0.5000000E+00       0.500000000000000E+02       0.694187177227115E+03       32        8        1         3