# WEL package for  MODFLOW-2000, generated by Flopy.
         1        53
         1         0 # stress period 1
         1       401      1067  -1.9454727E+04
        -1         0 # stress period 2
        -1         0 # stress period 3
        -1         0 # stress period 4
        -1         0 # stress period 5
