# Name file for MODFLOW-2000, generated by Flopy version 3.2.9.
#xul:0; yul:40000.20142; rotation:0; proj4_str:+init=EPSG:4326; units:meters; lenuni:2; length_multiplier:1.0 ;start_datetime:1-1-1970
GLOBAL             1  test_case_3.glo
LIST               2  test_case_3.list
DIS               11  test_case_3.dis 
BAS6              13  test_case_3.bas 
LPF               15  test_case_3.lpf 
OC                14  test_case_3.oc 
PCG               27  test_case_3.pcg 
WEL               20  test_case_3.wel 
DATA(BINARY)      53  test_case_3.cbc REPLACE
DATA(BINARY)      51  test_case_3.hds REPLACE
