# DIS package for  MODFLOW-2000, generated by Flopy.
         1       800      1600         5         4         2
  0
CONSTANT    5.000000E+01                           #delr                          
CONSTANT    5.000025E+01                           #delc                          
CONSTANT    2.000000E+02                           #model_top                     
CONSTANT    0.000000E+00                           #botm layer 1                  
      1.000000             1  1.000000  SS 
      1.000000             1  1.000000  SS 
      1.000000             1  1.000000  SS 
      1.000000             1  1.000000  SS 
      1.000000             1  1.000000  SS 
