# Name file for MODPATH, generated by Flopy version 3.2.9.
MPBAS  86 test_case_1.mpbas
DIS  11 test_case_1.dis
HEAD  88 test_case_1.hds
BUDGET  89 test_case_1.cbc
