# Name file for MODPATH, generated by Flopy version 3.2.9.
MPBAS  86 pollock_88_mp.mpbas
DIS  11 pollock_88.dis
HEAD  88 pollock_88.hds
BUDGET  89 pollock_88.cbc
