# Name file for MODPATH, generated by Flopy version 3.2.9.
MPBAS  86 test_case_2.mpbas
DIS  11 test_case_2.dis
HEAD  88 test_case_2.hds
BUDGET  89 test_case_2.cbc
